MODEL 1
REMARK VINA RESULT:   -10.857      0.000      0.000
REMARK INTER + INTRA:         -23.017
REMARK INTER:                 -20.061
REMARK INTRA:                  -2.956
REMARK UNBOUND:                -2.956
REMARK SMILES NC(=O)C1=CN([C@@H]2O[C@H](CO[P@](=O)(O)O[P@@](=O)(O)OC[C@H]3O[C@@H](n4cnc5c(N)ncnc54)[C@H](O)[C@@H]3O)[C@@H](O)[C@H]2O)C=CC1
REMARK SMILES IDX 15 1 12 2 13 3 11 4 10 5 9 6 7 7 40 8 8 9 38 10 6 11 44 12
REMARK SMILES IDX 43 13 4 14 42 15 5 16 2 17 3 18 1 19 41 22 39 24 14 26 16 28
REMARK SMILES IDX 17 29 18 30 19 32 20 33 21 34 36 35 22 36 34 37 23 38 37 39
REMARK SMILES IDX 35 41 24 43 25 44 33 45 26 46 32 47 27 48 31 49 28 50 30 51
REMARK SMILES IDX 29 52
REMARK H PARENT 1 20 1 21 41 23 39 25 14 27 18 31 37 40 35 42 29 53 29 54
ROOT
ATOM      1  O   UNL     1     -19.920   5.578  56.980  1.00  0.00    -0.185 OA
ENDROOT
BRANCH   1   2
ATOM      2  P   UNL     1     -21.356   5.166  56.150  1.00  0.00     0.481 P 
ATOM      3  O   UNL     1     -22.491   5.978  56.696  1.00  0.00    -0.228 OA
BRANCH   2   4
ATOM      4  O   UNL     1     -21.690   3.518  56.397  1.00  0.00    -0.284 OA
BRANCH   4   5
ATOM      5  C   UNL     1     -21.808   2.939  55.154  1.00  0.00     0.208 C 
BRANCH   5   6
ATOM      6  C   UNL     1     -21.321   1.505  55.134  1.00  0.00     0.179 C 
ATOM      7  C   UNL     1     -21.212  -0.414  54.114  1.00  0.00     0.250 C 
ATOM      8  C   UNL     1     -19.757   0.037  54.166  1.00  0.00     0.195 C 
ATOM      9  O   UNL     1     -21.963   0.756  54.156  1.00  0.00    -0.347 OA
ATOM     10  C   UNL     1     -19.885   1.448  54.669  1.00  0.00     0.179 C 
BRANCH   7  11
ATOM     11  N   UNL     1     -21.470  -1.195  52.927  1.00  0.00    -0.326 N 
ATOM     12  C   UNL     1     -21.895  -2.831  50.625  1.00  0.00     0.071 C 
ATOM     13  C   UNL     1     -20.981  -3.158  51.726  1.00  0.00    -0.004 C 
ATOM     14  C   UNL     1     -22.569  -1.545  50.858  1.00  0.00     0.037 C 
ATOM     15  C   UNL     1     -20.770  -2.425  52.790  1.00  0.00     0.084 C 
ATOM     16  C   UNL     1     -22.381  -0.780  51.918  1.00  0.00     0.098 C 
BRANCH  14  17
ATOM     17  C   UNL     1     -23.526  -1.066  49.841  1.00  0.00     0.246 C 
ATOM     18  O   UNL     1     -23.982   0.117  49.870  1.00  0.00    -0.270 OA
ATOM     19  N   UNL     1     -23.980  -1.902  48.783  1.00  0.00    -0.366 N 
ATOM     20  H   UNL     1     -23.838  -1.578  47.804  1.00  0.00     0.159 HD
ATOM     21  H   UNL     1     -24.448  -2.816  48.918  1.00  0.00     0.159 HD
ENDBRANCH  14  17
ENDBRANCH   7  11
BRANCH   8  22
ATOM     22  O   UNL     1     -19.011  -0.753  55.039  1.00  0.00    -0.386 OA
ATOM     23  H   UNL     1     -19.504  -0.821  55.899  1.00  0.00     0.211 HD
ENDBRANCH   8  22
BRANCH  10  24
ATOM     24  O   UNL     1     -19.025   1.706  55.739  1.00  0.00    -0.387 OA
ATOM     25  H   UNL     1     -19.138   0.950  56.383  1.00  0.00     0.211 HD
ENDBRANCH  10  24
ENDBRANCH   5   6
ENDBRANCH   4   5
ENDBRANCH   2   4
BRANCH   2  26
ATOM     26  O   UNL     1     -21.059   5.438  54.521  1.00  0.00    -0.302 OA
ATOM     27  H   UNL     1     -21.683   4.878  53.998  1.00  0.00     0.223 HD
ENDBRANCH   2  26
ENDBRANCH   1   2
BRANCH   1  28
ATOM     28  P   UNL     1     -18.964   6.498  55.926  1.00  0.00     0.481 P 
ATOM     29  O   UNL     1     -19.835   7.637  55.427  1.00  0.00    -0.228 OA
BRANCH  28  30
ATOM     30  O   UNL     1     -17.654   7.173  56.778  1.00  0.00    -0.302 OA
ATOM     31  H   UNL     1     -17.021   7.583  56.111  1.00  0.00     0.223 HD
ENDBRANCH  28  30
BRANCH  28  32
ATOM     32  O   UNL     1     -18.427   5.528  54.663  1.00  0.00    -0.284 OA
BRANCH  32  33
ATOM     33  C   UNL     1     -17.383   6.124  53.946  1.00  0.00     0.208 C 
BRANCH  33  34
ATOM     34  C   UNL     1     -16.060   5.458  54.272  1.00  0.00     0.179 C 
ATOM     35  C   UNL     1     -16.287   4.225  55.154  1.00  0.00     0.179 C 
ATOM     36  O   UNL     1     -15.273   6.238  55.117  1.00  0.00    -0.347 OA
ATOM     37  C   UNL     1     -14.922   4.033  55.764  1.00  0.00     0.195 C 
ATOM     38  C   UNL     1     -14.254   5.362  55.435  1.00  0.00     0.253 C 
BRANCH  35  39
ATOM     39  O   UNL     1     -16.573   3.099  54.388  1.00  0.00    -0.387 OA
ATOM     40  H   UNL     1     -16.349   2.300  54.903  1.00  0.00     0.211 HD
ENDBRANCH  35  39
BRANCH  37  41
ATOM     41  O   UNL     1     -14.187   3.054  55.120  1.00  0.00    -0.386 OA
ATOM     42  H   UNL     1     -13.241   3.303  55.196  1.00  0.00     0.211 HD
ENDBRANCH  37  41
BRANCH  38  43
ATOM     43  N   UNL     1     -13.493   5.847  56.597  1.00  0.00    -0.285 N 
ATOM     44  C   UNL     1     -12.142   6.008  56.662  1.00  0.00     0.204 A 
ATOM     45  C   UNL     1     -14.021   6.210  57.789  1.00  0.00     0.167 A 
ATOM     46  N   UNL     1     -11.820   6.469  57.884  1.00  0.00    -0.231 NA
ATOM     47  N   UNL     1     -15.273   6.248  58.265  1.00  0.00    -0.216 NA
ATOM     48  C   UNL     1     -12.956   6.604  58.603  1.00  0.00     0.150 A 
ATOM     49  C   UNL     1     -15.504   6.664  59.523  1.00  0.00     0.226 A 
ATOM     50  C   UNL     1     -13.218   7.034  59.908  1.00  0.00     0.155 A 
ATOM     51  N   UNL     1     -14.497   7.056  60.345  1.00  0.00    -0.217 NA
BRANCH  50  52
ATOM     52  N   UNL     1     -12.125   7.440  60.747  1.00  0.00    -0.382 N 
ATOM     53  H   UNL     1     -11.263   6.874  60.868  1.00  0.00     0.158 HD
ATOM     54  H   UNL     1     -12.271   8.373  61.234  1.00  0.00     0.158 HD
ENDBRANCH  50  52
ENDBRANCH  38  43
ENDBRANCH  33  34
ENDBRANCH  32  33
ENDBRANCH  28  32
ENDBRANCH   1  28
TORSDOF 18
ENDMDL
MODEL 2
REMARK VINA RESULT:   -10.779      1.653     10.754
REMARK INTER + INTRA:         -22.873
REMARK INTER:                 -21.056
REMARK INTRA:                  -1.817
REMARK UNBOUND:                -2.956
REMARK SMILES NC(=O)C1=CN([C@@H]2O[C@H](CO[P@](=O)(O)O[P@@](=O)(O)OC[C@H]3O[C@@H](n4cnc5c(N)ncnc54)[C@H](O)[C@@H]3O)[C@@H](O)[C@H]2O)C=CC1
REMARK SMILES IDX 15 1 12 2 13 3 11 4 10 5 9 6 7 7 40 8 8 9 38 10 6 11 44 12
REMARK SMILES IDX 43 13 4 14 42 15 5 16 2 17 3 18 1 19 41 22 39 24 14 26 16 28
REMARK SMILES IDX 17 29 18 30 19 32 20 33 21 34 36 35 22 36 34 37 23 38 37 39
REMARK SMILES IDX 35 41 24 43 25 44 33 45 26 46 32 47 27 48 31 49 28 50 30 51
REMARK SMILES IDX 29 52
REMARK H PARENT 1 20 1 21 41 23 39 25 14 27 18 31 37 40 35 42 29 53 29 54
ROOT
ATOM      1  O   UNL     1     -21.048   5.948  55.263  1.00  0.00    -0.185 OA
ENDROOT
BRANCH   1   2
ATOM      2  P   UNL     1     -19.601   6.557  54.589  1.00  0.00     0.481 P 
ATOM      3  O   UNL     1     -19.861   7.003  53.182  1.00  0.00    -0.228 OA
BRANCH   2   4
ATOM      4  O   UNL     1     -18.432   5.324  54.568  1.00  0.00    -0.284 OA
BRANCH   4   5
ATOM      5  C   UNL     1     -17.416   5.745  53.742  1.00  0.00     0.208 C 
BRANCH   5   6
ATOM      6  C   UNL     1     -16.045   5.485  54.331  1.00  0.00     0.179 C 
ATOM      7  C   UNL     1     -14.408   6.138  55.608  1.00  0.00     0.250 C 
ATOM      8  C   UNL     1     -14.899   4.867  56.292  1.00  0.00     0.195 C 
ATOM      9  O   UNL     1     -15.506   6.628  54.907  1.00  0.00    -0.347 OA
ATOM     10  C   UNL     1     -16.155   4.564  55.523  1.00  0.00     0.179 C 
BRANCH   7  11
ATOM     11  N   UNL     1     -13.901   7.083  56.574  1.00  0.00    -0.326 N 
ATOM     12  C   UNL     1     -12.786   8.962  58.414  1.00  0.00     0.071 C 
ATOM     13  C   UNL     1     -12.105   8.462  57.214  1.00  0.00    -0.004 C 
ATOM     14  C   UNL     1     -14.125   8.369  58.551  1.00  0.00     0.037 C 
ATOM     15  C   UNL     1     -12.595   7.602  56.356  1.00  0.00     0.084 C 
ATOM     16  C   UNL     1     -14.651   7.499  57.708  1.00  0.00     0.098 C 
BRANCH  14  17
ATOM     17  C   UNL     1     -14.947   8.765  59.711  1.00  0.00     0.246 C 
ATOM     18  O   UNL     1     -14.458   9.442  60.666  1.00  0.00    -0.270 OA
ATOM     19  N   UNL     1     -16.321   8.412  59.815  1.00  0.00    -0.366 N 
ATOM     20  H   UNL     1     -17.018   9.176  59.935  1.00  0.00     0.159 HD
ATOM     21  H   UNL     1     -16.682   7.442  59.782  1.00  0.00     0.159 HD
ENDBRANCH  14  17
ENDBRANCH   7  11
BRANCH   8  22
ATOM     22  O   UNL     1     -13.967   3.836  56.178  1.00  0.00    -0.386 OA
ATOM     23  H   UNL     1     -13.863   3.408  57.069  1.00  0.00     0.211 HD
ENDBRANCH   8  22
BRANCH  10  24
ATOM     24  O   UNL     1     -16.205   3.234  55.098  1.00  0.00    -0.387 OA
ATOM     25  H   UNL     1     -16.908   3.189  54.390  1.00  0.00     0.211 HD
ENDBRANCH  10  24
ENDBRANCH   5   6
ENDBRANCH   4   5
ENDBRANCH   2   4
BRANCH   2  26
ATOM     26  O   UNL     1     -19.090   7.795  55.600  1.00  0.00    -0.302 OA
ATOM     27  H   UNL     1     -19.362   7.569  56.523  1.00  0.00     0.223 HD
ENDBRANCH   2  26
ENDBRANCH   1   2
BRANCH   1  28
ATOM     28  P   UNL     1     -20.659   5.212  56.739  1.00  0.00     0.481 P 
ATOM     29  O   UNL     1     -19.222   5.593  57.051  1.00  0.00    -0.228 OA
BRANCH  28  30
ATOM     30  O   UNL     1     -21.648   5.838  57.974  1.00  0.00    -0.302 OA
ATOM     31  H   UNL     1     -21.236   6.695  58.304  1.00  0.00     0.223 HD
ENDBRANCH  28  30
BRANCH  28  32
ATOM     32  O   UNL     1     -20.844   3.547  56.602  1.00  0.00    -0.284 OA
BRANCH  32  33
ATOM     33  C   UNL     1     -21.335   3.172  55.347  1.00  0.00     0.208 C 
BRANCH  33  34
ATOM     34  C   UNL     1     -21.661   1.690  55.319  1.00  0.00     0.179 C 
ATOM     35  C   UNL     1     -20.408   0.864  55.633  1.00  0.00     0.179 C 
ATOM     36  O   UNL     1     -21.950   1.241  54.031  1.00  0.00    -0.347 OA
ATOM     37  C   UNL     1     -20.783  -0.482  55.069  1.00  0.00     0.195 C 
ATOM     38  C   UNL     1     -21.997  -0.126  54.219  1.00  0.00     0.253 C 
BRANCH  35  39
ATOM     39  O   UNL     1     -20.230   0.716  57.005  1.00  0.00    -0.387 OA
ATOM     40  H   UNL     1     -19.997  -0.214  57.196  1.00  0.00     0.211 HD
ENDBRANCH  35  39
BRANCH  37  41
ATOM     41  O   UNL     1     -21.229  -1.359  56.041  1.00  0.00    -0.386 OA
ATOM     42  H   UNL     1     -20.866  -1.052  56.899  1.00  0.00     0.211 HD
ENDBRANCH  37  41
BRANCH  38  43
ATOM     43  N   UNL     1     -21.936  -0.832  52.930  1.00  0.00    -0.285 N 
ATOM     44  C   UNL     1     -21.100  -1.861  52.616  1.00  0.00     0.204 A 
ATOM     45  C   UNL     1     -22.706  -0.567  51.848  1.00  0.00     0.167 A 
ATOM     46  N   UNL     1     -21.340  -2.242  51.348  1.00  0.00    -0.231 NA
ATOM     47  N   UNL     1     -23.675   0.327  51.608  1.00  0.00    -0.216 NA
ATOM     48  C   UNL     1     -22.324  -1.463  50.847  1.00  0.00     0.150 A 
ATOM     49  C   UNL     1     -24.280   0.361  50.408  1.00  0.00     0.226 A 
ATOM     50  C   UNL     1     -22.966  -1.412  49.605  1.00  0.00     0.155 A 
ATOM     51  N   UNL     1     -23.939  -0.494  49.409  1.00  0.00    -0.217 NA
BRANCH  50  52
ATOM     52  N   UNL     1     -22.576  -2.334  48.574  1.00  0.00    -0.382 N 
ATOM     53  H   UNL     1     -21.740  -2.944  48.647  1.00  0.00     0.158 HD
ATOM     54  H   UNL     1     -23.218  -2.339  47.727  1.00  0.00     0.158 HD
ENDBRANCH  50  52
ENDBRANCH  38  43
ENDBRANCH  33  34
ENDBRANCH  32  33
ENDBRANCH  28  32
ENDBRANCH   1  28
TORSDOF 18
ENDMDL
MODEL 3
REMARK VINA RESULT:   -10.746      1.673     10.541
REMARK INTER + INTRA:         -22.811
REMARK INTER:                 -19.388
REMARK INTRA:                  -3.423
REMARK UNBOUND:                -2.956
REMARK SMILES NC(=O)C1=CN([C@@H]2O[C@H](CO[P@](=O)(O)O[P@@](=O)(O)OC[C@H]3O[C@@H](n4cnc5c(N)ncnc54)[C@H](O)[C@@H]3O)[C@@H](O)[C@H]2O)C=CC1
REMARK SMILES IDX 15 1 12 2 13 3 11 4 10 5 9 6 7 7 40 8 8 9 38 10 6 11 44 12
REMARK SMILES IDX 43 13 4 14 42 15 5 16 2 17 3 18 1 19 41 22 39 24 14 26 16 28
REMARK SMILES IDX 17 29 18 30 19 32 20 33 21 34 36 35 22 36 34 37 23 38 37 39
REMARK SMILES IDX 35 41 24 43 25 44 33 45 26 46 32 47 27 48 31 49 28 50 30 51
REMARK SMILES IDX 29 52
REMARK H PARENT 1 20 1 21 41 23 39 25 14 27 18 31 37 40 35 42 29 53 29 54
ROOT
ATOM      1  O   UNL     1     -20.600   6.473  56.945  1.00  0.00    -0.185 OA
ENDROOT
BRANCH   1   2
ATOM      2  P   UNL     1     -19.327   6.567  55.809  1.00  0.00     0.481 P 
ATOM      3  O   UNL     1     -19.837   7.197  54.548  1.00  0.00    -0.228 OA
BRANCH   2   4
ATOM      4  O   UNL     1     -18.777   4.998  55.456  1.00  0.00    -0.284 OA
BRANCH   4   5
ATOM      5  C   UNL     1     -17.954   5.096  54.358  1.00  0.00     0.208 C 
BRANCH   5   6
ATOM      6  C   UNL     1     -16.489   4.970  54.718  1.00  0.00     0.179 C 
ATOM      7  C   UNL     1     -14.717   5.821  55.652  1.00  0.00     0.250 C 
ATOM      8  C   UNL     1     -14.988   4.576  56.488  1.00  0.00     0.195 C 
ATOM      9  O   UNL     1     -15.950   6.186  55.121  1.00  0.00    -0.347 OA
ATOM     10  C   UNL     1     -16.328   4.136  55.967  1.00  0.00     0.179 C 
BRANCH   7  11
ATOM     11  N   UNL     1     -14.130   6.867  56.457  1.00  0.00    -0.326 N 
ATOM     12  C   UNL     1     -12.867   8.939  57.963  1.00  0.00     0.071 C 
ATOM     13  C   UNL     1     -12.317   8.340  56.740  1.00  0.00    -0.004 C 
ATOM     14  C   UNL     1     -14.159   8.333  58.317  1.00  0.00     0.037 C 
ATOM     15  C   UNL     1     -12.877   7.391  56.033  1.00  0.00     0.084 C 
ATOM     16  C   UNL     1     -14.753   7.375  57.629  1.00  0.00     0.098 C 
BRANCH  14  17
ATOM     17  C   UNL     1     -14.850   8.823  59.526  1.00  0.00     0.246 C 
ATOM     18  O   UNL     1     -14.217   9.408  60.456  1.00  0.00    -0.270 OA
ATOM     19  N   UNL     1     -16.252   8.666  59.707  1.00  0.00    -0.366 N 
ATOM     20  H   UNL     1     -16.826   9.519  59.873  1.00  0.00     0.159 HD
ATOM     21  H   UNL     1     -16.748   7.757  59.686  1.00  0.00     0.159 HD
ENDBRANCH  14  17
ENDBRANCH   7  11
BRANCH   8  22
ATOM     22  O   UNL     1     -14.012   3.602  56.281  1.00  0.00    -0.386 OA
ATOM     23  H   UNL     1     -13.162   3.920  56.685  1.00  0.00     0.211 HD
ENDBRANCH   8  22
BRANCH  10  24
ATOM     24  O   UNL     1     -16.346   2.777  55.640  1.00  0.00    -0.387 OA
ATOM     25  H   UNL     1     -17.041   2.665  54.931  1.00  0.00     0.211 HD
ENDBRANCH  10  24
ENDBRANCH   5   6
ENDBRANCH   4   5
ENDBRANCH   2   4
BRANCH   2  26
ATOM     26  O   UNL     1     -18.096   7.438  56.544  1.00  0.00    -0.302 OA
ATOM     27  H   UNL     1     -17.233   7.082  56.222  1.00  0.00     0.223 HD
ENDBRANCH   2  26
ENDBRANCH   1   2
BRANCH   1  28
ATOM     28  P   UNL     1     -21.619   5.204  56.471  1.00  0.00     0.481 P 
ATOM     29  O   UNL     1     -23.016   5.567  56.942  1.00  0.00    -0.228 OA
BRANCH  28  30
ATOM     30  O   UNL     1     -21.650   5.094  54.773  1.00  0.00    -0.302 OA
ATOM     31  H   UNL     1     -22.253   5.819  54.420  1.00  0.00     0.223 HD
ENDBRANCH  28  30
BRANCH  28  32
ATOM     32  O   UNL     1     -21.086   3.767  57.160  1.00  0.00    -0.284 OA
BRANCH  32  33
ATOM     33  C   UNL     1     -22.061   2.766  57.113  1.00  0.00     0.208 C 
BRANCH  33  34
ATOM     34  C   UNL     1     -21.565   1.569  56.323  1.00  0.00     0.179 C 
ATOM     35  C   UNL     1     -20.345   1.957  55.479  1.00  0.00     0.179 C 
ATOM     36  O   UNL     1     -22.461   1.192  55.324  1.00  0.00    -0.347 OA
ATOM     37  C   UNL     1     -20.334   0.864  54.442  1.00  0.00     0.195 C 
ATOM     38  C   UNL     1     -21.721   0.258  54.626  1.00  0.00     0.253 C 
BRANCH  35  39
ATOM     39  O   UNL     1     -19.168   1.857  56.215  1.00  0.00    -0.387 OA
ATOM     40  H   UNL     1     -18.526   1.317  55.714  1.00  0.00     0.211 HD
ENDBRANCH  35  39
BRANCH  37  41
ATOM     41  O   UNL     1     -19.427  -0.137  54.735  1.00  0.00    -0.386 OA
ATOM     42  H   UNL     1     -18.542   0.281  54.799  1.00  0.00     0.211 HD
ENDBRANCH  37  41
BRANCH  38  43
ATOM     43  N   UNL     1     -22.330  -0.017  53.315  1.00  0.00    -0.285 N 
ATOM     44  C   UNL     1     -23.322   0.703  52.723  1.00  0.00     0.204 A 
ATOM     45  C   UNL     1     -21.996  -1.037  52.490  1.00  0.00     0.167 A 
ATOM     46  N   UNL     1     -23.612   0.145  51.534  1.00  0.00    -0.231 NA
ATOM     47  N   UNL     1     -21.101  -2.031  52.573  1.00  0.00    -0.216 NA
ATOM     48  C   UNL     1     -22.812  -0.930  51.361  1.00  0.00     0.150 A 
ATOM     49  C   UNL     1     -20.987  -2.922  51.574  1.00  0.00     0.226 A 
ATOM     50  C   UNL     1     -22.678  -1.869  50.331  1.00  0.00     0.155 A 
ATOM     51  N   UNL     1     -21.761  -2.854  50.460  1.00  0.00    -0.217 NA
BRANCH  50  52
ATOM     52  N   UNL     1     -23.516  -1.761  49.170  1.00  0.00    -0.382 N 
ATOM     53  H   UNL     1     -23.844  -0.853  48.790  1.00  0.00     0.158 HD
ATOM     54  H   UNL     1     -23.774  -2.693  48.729  1.00  0.00     0.158 HD
ENDBRANCH  50  52
ENDBRANCH  38  43
ENDBRANCH  33  34
ENDBRANCH  32  33
ENDBRANCH  28  32
ENDBRANCH   1  28
TORSDOF 18
ENDMDL
MODEL 4
REMARK VINA RESULT:   -10.628      1.617      2.416
REMARK INTER + INTRA:         -22.593
REMARK INTER:                 -19.816
REMARK INTRA:                  -2.776
REMARK UNBOUND:                -2.956
REMARK SMILES NC(=O)C1=CN([C@@H]2O[C@H](CO[P@](=O)(O)O[P@@](=O)(O)OC[C@H]3O[C@@H](n4cnc5c(N)ncnc54)[C@H](O)[C@@H]3O)[C@@H](O)[C@H]2O)C=CC1
REMARK SMILES IDX 15 1 12 2 13 3 11 4 10 5 9 6 7 7 40 8 8 9 38 10 6 11 44 12
REMARK SMILES IDX 43 13 4 14 42 15 5 16 2 17 3 18 1 19 41 22 39 24 14 26 16 28
REMARK SMILES IDX 17 29 18 30 19 32 20 33 21 34 36 35 22 36 34 37 23 38 37 39
REMARK SMILES IDX 35 41 24 43 25 44 33 45 26 46 32 47 27 48 31 49 28 50 30 51
REMARK SMILES IDX 29 52
REMARK H PARENT 1 20 1 21 41 23 39 25 14 27 18 31 37 40 35 42 29 53 29 54
ROOT
ATOM      1  O   UNL     1     -19.404   4.929  54.800  1.00  0.00    -0.185 OA
ENDROOT
BRANCH   1   2
ATOM      2  P   UNL     1     -20.222   5.178  56.280  1.00  0.00     0.481 P 
ATOM      3  O   UNL     1     -19.219   5.476  57.353  1.00  0.00    -0.228 OA
BRANCH   2   4
ATOM      4  O   UNL     1     -21.069   3.765  56.695  1.00  0.00    -0.284 OA
BRANCH   4   5
ATOM      5  C   UNL     1     -21.671   3.303  55.548  1.00  0.00     0.208 C 
BRANCH   5   6
ATOM      6  C   UNL     1     -21.373   1.842  55.284  1.00  0.00     0.179 C 
ATOM      7  C   UNL     1     -21.623   0.084  54.025  1.00  0.00     0.250 C 
ATOM      8  C   UNL     1     -20.126   0.362  53.943  1.00  0.00     0.195 C 
ATOM      9  O   UNL     1     -22.212   1.312  54.312  1.00  0.00    -0.347 OA
ATOM     10  C   UNL     1     -20.019   1.695  54.632  1.00  0.00     0.179 C 
BRANCH   7  11
ATOM     11  N   UNL     1     -22.111  -0.490  52.794  1.00  0.00    -0.326 N 
ATOM     12  C   UNL     1     -23.164  -1.526  50.349  1.00  0.00     0.071 C 
ATOM     13  C   UNL     1     -23.652  -0.317  51.024  1.00  0.00    -0.004 C 
ATOM     14  C   UNL     1     -22.057  -2.141  51.097  1.00  0.00     0.037 C 
ATOM     15  C   UNL     1     -23.186   0.177  52.143  1.00  0.00     0.084 C 
ATOM     16  C   UNL     1     -21.562  -1.673  52.227  1.00  0.00     0.098 C 
BRANCH  14  17
ATOM     17  C   UNL     1     -21.450  -3.372  50.553  1.00  0.00     0.246 C 
ATOM     18  O   UNL     1     -20.969  -4.263  51.316  1.00  0.00    -0.270 OA
ATOM     19  N   UNL     1     -21.374  -3.619  49.154  1.00  0.00    -0.366 N 
ATOM     20  H   UNL     1     -21.804  -4.493  48.784  1.00  0.00     0.159 HD
ATOM     21  H   UNL     1     -20.918  -2.989  48.471  1.00  0.00     0.159 HD
ENDBRANCH  14  17
ENDBRANCH   7  11
BRANCH   8  22
ATOM     22  O   UNL     1     -19.390  -0.619  54.605  1.00  0.00    -0.386 OA
ATOM     23  H   UNL     1     -19.481  -1.471  54.103  1.00  0.00     0.211 HD
ENDBRANCH   8  22
BRANCH  10  24
ATOM     24  O   UNL     1     -19.016   1.705  55.605  1.00  0.00    -0.387 OA
ATOM     25  H   UNL     1     -18.163   1.479  55.136  1.00  0.00     0.211 HD
ENDBRANCH  10  24
ENDBRANCH   5   6
ENDBRANCH   4   5
ENDBRANCH   2   4
BRANCH   2  26
ATOM     26  O   UNL     1     -21.312   6.426  56.017  1.00  0.00    -0.302 OA
ATOM     27  H   UNL     1     -22.133   6.039  55.626  1.00  0.00     0.223 HD
ENDBRANCH   2  26
ENDBRANCH   1   2
BRANCH   1  28
ATOM     28  P   UNL     1     -18.830   6.432  54.270  1.00  0.00     0.481 P 
ATOM     29  O   UNL     1     -19.826   6.944  53.245  1.00  0.00    -0.228 OA
BRANCH  28  30
ATOM     30  O   UNL     1     -18.805   7.531  55.570  1.00  0.00    -0.302 OA
ATOM     31  H   UNL     1     -19.669   7.439  56.077  1.00  0.00     0.223 HD
ENDBRANCH  28  30
BRANCH  28  32
ATOM     32  O   UNL     1     -17.297   6.246  53.607  1.00  0.00    -0.284 OA
BRANCH  32  33
ATOM     33  C   UNL     1     -16.644   5.110  54.098  1.00  0.00     0.208 C 
BRANCH  33  34
ATOM     34  C   UNL     1     -15.495   5.502  55.008  1.00  0.00     0.179 C 
ATOM     35  C   UNL     1     -15.141   4.343  55.947  1.00  0.00     0.179 C 
ATOM     36  O   UNL     1     -15.867   6.478  55.931  1.00  0.00    -0.347 OA
ATOM     37  C   UNL     1     -14.400   5.060  57.046  1.00  0.00     0.195 C 
ATOM     38  C   UNL     1     -14.762   6.512  56.759  1.00  0.00     0.253 C 
BRANCH  35  39
ATOM     39  O   UNL     1     -14.254   3.456  55.344  1.00  0.00    -0.387 OA
ATOM     40  H   UNL     1     -13.509   3.962  54.965  1.00  0.00     0.211 HD
ENDBRANCH  35  39
BRANCH  37  41
ATOM     41  O   UNL     1     -13.027   4.964  56.911  1.00  0.00    -0.386 OA
ATOM     42  H   UNL     1     -12.849   4.483  56.075  1.00  0.00     0.211 HD
ENDBRANCH  37  41
BRANCH  38  43
ATOM     43  N   UNL     1     -15.071   7.214  58.014  1.00  0.00    -0.285 N 
ATOM     44  C   UNL     1     -16.269   7.767  58.351  1.00  0.00     0.204 A 
ATOM     45  C   UNL     1     -14.207   7.421  59.035  1.00  0.00     0.167 A 
ATOM     46  N   UNL     1     -16.163   8.317  59.574  1.00  0.00    -0.231 NA
ATOM     47  N   UNL     1     -12.921   7.096  59.230  1.00  0.00    -0.216 NA
ATOM     48  C   UNL     1     -14.903   8.121  60.022  1.00  0.00     0.150 A 
ATOM     49  C   UNL     1     -12.304   7.441  60.373  1.00  0.00     0.226 A 
ATOM     50  C   UNL     1     -14.242   8.472  61.205  1.00  0.00     0.155 A 
ATOM     51  N   UNL     1     -12.945   8.122  61.358  1.00  0.00    -0.217 NA
BRANCH  50  52
ATOM     52  N   UNL     1     -14.957   9.191  62.222  1.00  0.00    -0.382 N 
ATOM     53  H   UNL     1     -15.205  10.195  62.138  1.00  0.00     0.158 HD
ATOM     54  H   UNL     1     -15.212   8.607  63.073  1.00  0.00     0.158 HD
ENDBRANCH  50  52
ENDBRANCH  38  43
ENDBRANCH  33  34
ENDBRANCH  32  33
ENDBRANCH  28  32
ENDBRANCH   1  28
TORSDOF 18
ENDMDL
MODEL 5
REMARK VINA RESULT:   -10.558      2.101      9.900
REMARK INTER + INTRA:         -22.464
REMARK INTER:                 -19.739
REMARK INTRA:                  -2.725
REMARK UNBOUND:                -2.956
REMARK SMILES NC(=O)C1=CN([C@@H]2O[C@H](CO[P@](=O)(O)O[P@@](=O)(O)OC[C@H]3O[C@@H](n4cnc5c(N)ncnc54)[C@H](O)[C@@H]3O)[C@@H](O)[C@H]2O)C=CC1
REMARK SMILES IDX 15 1 12 2 13 3 11 4 10 5 9 6 7 7 40 8 8 9 38 10 6 11 44 12
REMARK SMILES IDX 43 13 4 14 42 15 5 16 2 17 3 18 1 19 41 22 39 24 14 26 16 28
REMARK SMILES IDX 17 29 18 30 19 32 20 33 21 34 36 35 22 36 34 37 23 38 37 39
REMARK SMILES IDX 35 41 24 43 25 44 33 45 26 46 32 47 27 48 31 49 28 50 30 51
REMARK SMILES IDX 29 52
REMARK H PARENT 1 20 1 21 41 23 39 25 14 27 18 31 37 40 35 42 29 53 29 54
ROOT
ATOM      1  O   UNL     1     -20.252   6.375  56.396  1.00  0.00    -0.185 OA
ENDROOT
BRANCH   1   2
ATOM      2  P   UNL     1     -19.291   6.106  55.009  1.00  0.00     0.481 P 
ATOM      3  O   UNL     1     -19.206   4.632  54.747  1.00  0.00    -0.228 OA
BRANCH   2   4
ATOM      4  O   UNL     1     -17.726   6.706  55.289  1.00  0.00    -0.284 OA
BRANCH   4   5
ATOM      5  C   UNL     1     -16.900   6.132  54.351  1.00  0.00     0.208 C 
BRANCH   5   6
ATOM      6  C   UNL     1     -15.757   5.362  54.979  1.00  0.00     0.179 C 
ATOM      7  C   UNL     1     -14.817   4.541  56.762  1.00  0.00     0.250 C 
ATOM      8  C   UNL     1     -15.147   3.301  55.939  1.00  0.00     0.195 C 
ATOM      9  O   UNL     1     -15.735   5.506  56.360  1.00  0.00    -0.347 OA
ATOM     10  C   UNL     1     -15.984   3.876  54.831  1.00  0.00     0.179 C 
BRANCH   7  11
ATOM     11  N   UNL     1     -14.893   4.260  58.176  1.00  0.00    -0.326 N 
ATOM     12  C   UNL     1     -14.993   3.823  60.997  1.00  0.00     0.071 C 
ATOM     13  C   UNL     1     -14.491   5.045  60.357  1.00  0.00    -0.004 C 
ATOM     14  C   UNL     1     -15.441   2.845  59.995  1.00  0.00     0.037 C 
ATOM     15  C   UNL     1     -14.436   5.269  59.068  1.00  0.00     0.084 C 
ATOM     16  C   UNL     1     -15.399   3.034  58.689  1.00  0.00     0.098 C 
BRANCH  14  17
ATOM     17  C   UNL     1     -15.975   1.554  60.473  1.00  0.00     0.246 C 
ATOM     18  O   UNL     1     -16.109   0.565  59.690  1.00  0.00    -0.270 OA
ATOM     19  N   UNL     1     -16.363   1.356  61.827  1.00  0.00    -0.366 N 
ATOM     20  H   UNL     1     -15.915   0.580  62.359  1.00  0.00     0.159 HD
ATOM     21  H   UNL     1     -17.065   1.930  62.326  1.00  0.00     0.159 HD
ENDBRANCH  14  17
ENDBRANCH   7  11
BRANCH   8  22
ATOM     22  O   UNL     1     -13.992   2.695  55.448  1.00  0.00    -0.386 OA
ATOM     23  H   UNL     1     -14.233   2.170  54.639  1.00  0.00     0.211 HD
ENDBRANCH   8  22
BRANCH  10  24
ATOM     24  O   UNL     1     -15.556   3.449  53.571  1.00  0.00    -0.387 OA
ATOM     25  H   UNL     1     -16.324   3.588  52.948  1.00  0.00     0.211 HD
ENDBRANCH  10  24
ENDBRANCH   5   6
ENDBRANCH   4   5
ENDBRANCH   2   4
BRANCH   2  26
ATOM     26  O   UNL     1     -20.006   6.968  53.760  1.00  0.00    -0.302 OA
ATOM     27  H   UNL     1     -20.910   7.240  54.053  1.00  0.00     0.223 HD
ENDBRANCH   2  26
ENDBRANCH   1   2
BRANCH   1  28
ATOM     28  P   UNL     1     -21.534   5.267  56.357  1.00  0.00     0.481 P 
ATOM     29  O   UNL     1     -22.714   5.942  57.032  1.00  0.00    -0.228 OA
BRANCH  28  30
ATOM     30  O   UNL     1     -21.966   4.944  54.743  1.00  0.00    -0.302 OA
ATOM     31  H   UNL     1     -22.479   4.078  54.721  1.00  0.00     0.223 HD
ENDBRANCH  28  30
BRANCH  28  32
ATOM     32  O   UNL     1     -21.083   3.859  57.155  1.00  0.00    -0.284 OA
BRANCH  32  33
ATOM     33  C   UNL     1     -22.092   2.889  57.124  1.00  0.00     0.208 C 
BRANCH  33  34
ATOM     34  C   UNL     1     -21.632   1.660  56.361  1.00  0.00     0.179 C 
ATOM     35  C   UNL     1     -20.381   1.983  55.536  1.00  0.00     0.179 C 
ATOM     36  O   UNL     1     -22.524   1.307  55.351  1.00  0.00    -0.347 OA
ATOM     37  C   UNL     1     -20.398   0.875  54.515  1.00  0.00     0.195 C 
ATOM     38  C   UNL     1     -21.812   0.331  54.681  1.00  0.00     0.253 C 
BRANCH  35  39
ATOM     39  O   UNL     1     -19.223   1.845  56.295  1.00  0.00    -0.387 OA
ATOM     40  H   UNL     1     -19.152   2.606  56.905  1.00  0.00     0.211 HD
ENDBRANCH  35  39
BRANCH  37  41
ATOM     41  O   UNL     1     -19.539  -0.159  54.840  1.00  0.00    -0.386 OA
ATOM     42  H   UNL     1     -19.430  -0.152  55.815  1.00  0.00     0.211 HD
ENDBRANCH  37  41
BRANCH  38  43
ATOM     43  N   UNL     1     -22.407   0.061  53.363  1.00  0.00    -0.285 N 
ATOM     44  C   UNL     1     -23.386   0.791  52.759  1.00  0.00     0.204 A 
ATOM     45  C   UNL     1     -22.072  -0.961  52.541  1.00  0.00     0.167 A 
ATOM     46  N   UNL     1     -23.667   0.235  51.567  1.00  0.00    -0.231 NA
ATOM     47  N   UNL     1     -21.187  -1.962  52.635  1.00  0.00    -0.216 NA
ATOM     48  C   UNL     1     -22.874  -0.847  51.403  1.00  0.00     0.150 A 
ATOM     49  C   UNL     1     -21.069  -2.855  51.637  1.00  0.00     0.226 A 
ATOM     50  C   UNL     1     -22.736  -1.786  50.374  1.00  0.00     0.155 A 
ATOM     51  N   UNL     1     -21.829  -2.779  50.513  1.00  0.00    -0.217 NA
BRANCH  50  52
ATOM     52  N   UNL     1     -23.558  -1.671  49.203  1.00  0.00    -0.382 N 
ATOM     53  H   UNL     1     -23.563  -2.375  48.441  1.00  0.00     0.158 HD
ATOM     54  H   UNL     1     -24.167  -0.799  49.181  1.00  0.00     0.158 HD
ENDBRANCH  50  52
ENDBRANCH  38  43
ENDBRANCH  33  34
ENDBRANCH  32  33
ENDBRANCH  28  32
ENDBRANCH   1  28
TORSDOF 18
ENDMDL
MODEL 6
REMARK VINA RESULT:   -10.264      2.567      9.980
REMARK INTER + INTRA:         -21.921
REMARK INTER:                 -19.172
REMARK INTRA:                  -2.748
REMARK UNBOUND:                -2.956
REMARK SMILES NC(=O)C1=CN([C@@H]2O[C@H](CO[P@](=O)(O)O[P@@](=O)(O)OC[C@H]3O[C@@H](n4cnc5c(N)ncnc54)[C@H](O)[C@@H]3O)[C@@H](O)[C@H]2O)C=CC1
REMARK SMILES IDX 15 1 12 2 13 3 11 4 10 5 9 6 7 7 40 8 8 9 38 10 6 11 44 12
REMARK SMILES IDX 43 13 4 14 42 15 5 16 2 17 3 18 1 19 41 22 39 24 14 26 16 28
REMARK SMILES IDX 17 29 18 30 19 32 20 33 21 34 36 35 22 36 34 37 23 38 37 39
REMARK SMILES IDX 35 41 24 43 25 44 33 45 26 46 32 47 27 48 31 49 28 50 30 51
REMARK SMILES IDX 29 52
REMARK H PARENT 1 20 1 21 41 23 39 25 14 27 18 31 37 40 35 42 29 53 29 54
ROOT
ATOM      1  O   UNL     1     -19.495   4.673  56.247  1.00  0.00    -0.185 OA
ENDROOT
BRANCH   1   2
ATOM      2  P   UNL     1     -19.248   5.973  55.166  1.00  0.00     0.481 P 
ATOM      3  O   UNL     1     -19.734   5.580  53.804  1.00  0.00    -0.228 OA
BRANCH   2   4
ATOM      4  O   UNL     1     -17.586   6.318  55.079  1.00  0.00    -0.284 OA
BRANCH   4   5
ATOM      5  C   UNL     1     -17.117   6.373  56.370  1.00  0.00     0.208 C 
BRANCH   5   6
ATOM      6  C   UNL     1     -15.920   5.472  56.591  1.00  0.00     0.179 C 
ATOM      7  C   UNL     1     -14.828   4.104  57.884  1.00  0.00     0.250 C 
ATOM      8  C   UNL     1     -15.219   3.227  56.701  1.00  0.00     0.195 C 
ATOM      9  O   UNL     1     -15.782   5.115  57.927  1.00  0.00    -0.347 OA
ATOM     10  C   UNL     1     -16.151   4.129  55.939  1.00  0.00     0.179 C 
BRANCH   7  11
ATOM     11  N   UNL     1     -14.782   3.335  59.105  1.00  0.00    -0.326 N 
ATOM     12  C   UNL     1     -14.579   1.878  61.554  1.00  0.00     0.071 C 
ATOM     13  C   UNL     1     -13.624   2.899  61.107  1.00  0.00    -0.004 C 
ATOM     14  C   UNL     1     -15.662   1.698  60.575  1.00  0.00     0.037 C 
ATOM     15  C   UNL     1     -13.695   3.579  59.990  1.00  0.00     0.084 C 
ATOM     16  C   UNL     1     -15.766   2.365  59.440  1.00  0.00     0.098 C 
BRANCH  14  17
ATOM     17  C   UNL     1     -16.711   0.703  60.871  1.00  0.00     0.246 C 
ATOM     18  O   UNL     1     -17.116  -0.111  59.989  1.00  0.00    -0.270 OA
ATOM     19  N   UNL     1     -17.315   0.608  62.156  1.00  0.00    -0.366 N 
ATOM     20  H   UNL     1     -17.275  -0.307  62.652  1.00  0.00     0.159 HD
ATOM     21  H   UNL     1     -17.798   1.388  62.636  1.00  0.00     0.159 HD
ENDBRANCH  14  17
ENDBRANCH   7  11
BRANCH   8  22
ATOM     22  O   UNL     1     -14.107   2.877  55.937  1.00  0.00    -0.386 OA
ATOM     23  H   UNL     1     -14.421   2.393  55.128  1.00  0.00     0.211 HD
ENDBRANCH   8  22
BRANCH  10  24
ATOM     24  O   UNL     1     -15.829   4.194  54.581  1.00  0.00    -0.387 OA
ATOM     25  H   UNL     1     -16.283   5.008  54.221  1.00  0.00     0.211 HD
ENDBRANCH  10  24
ENDBRANCH   5   6
ENDBRANCH   4   5
ENDBRANCH   2   4
BRANCH   2  26
ATOM     26  O   UNL     1     -20.059   7.291  55.813  1.00  0.00    -0.302 OA
ATOM     27  H   UNL     1     -19.492   8.091  55.689  1.00  0.00     0.223 HD
ENDBRANCH   2  26
ENDBRANCH   1   2
BRANCH   1  28
ATOM     28  P   UNL     1     -21.153   4.598  56.590  1.00  0.00     0.481 P 
ATOM     29  O   UNL     1     -21.411   5.579  57.719  1.00  0.00    -0.228 OA
BRANCH  28  30
ATOM     30  O   UNL     1     -22.046   5.111  55.235  1.00  0.00    -0.302 OA
ATOM     31  H   UNL     1     -22.538   5.953  55.482  1.00  0.00     0.223 HD
ENDBRANCH  28  30
BRANCH  28  32
ATOM     32  O   UNL     1     -21.566   3.028  57.025  1.00  0.00    -0.284 OA
BRANCH  32  33
ATOM     33  C   UNL     1     -22.287   2.374  56.020  1.00  0.00     0.208 C 
BRANCH  33  34
ATOM     34  C   UNL     1     -21.583   1.099  55.597  1.00  0.00     0.179 C 
ATOM     35  C   UNL     1     -20.249   1.428  54.916  1.00  0.00     0.179 C 
ATOM     36  O   UNL     1     -22.250   0.452  54.558  1.00  0.00    -0.347 OA
ATOM     37  C   UNL     1     -19.980   0.160  54.148  1.00  0.00     0.195 C 
ATOM     38  C   UNL     1     -21.339  -0.527  54.210  1.00  0.00     0.253 C 
BRANCH  35  39
ATOM     39  O   UNL     1     -19.229   1.585  55.850  1.00  0.00    -0.387 OA
ATOM     40  H   UNL     1     -18.412   1.850  55.385  1.00  0.00     0.211 HD
ENDBRANCH  35  39
BRANCH  37  41
ATOM     41  O   UNL     1     -19.089  -0.675  54.798  1.00  0.00    -0.386 OA
ATOM     42  H   UNL     1     -18.505  -0.109  55.345  1.00  0.00     0.211 HD
ENDBRANCH  37  41
BRANCH  38  43
ATOM     43  N   UNL     1     -21.672  -1.109  52.901  1.00  0.00    -0.285 N 
ATOM     44  C   UNL     1     -21.106  -2.216  52.347  1.00  0.00     0.204 A 
ATOM     45  C   UNL     1     -22.600  -0.630  52.039  1.00  0.00     0.167 A 
ATOM     46  N   UNL     1     -21.670  -2.436  51.145  1.00  0.00    -0.231 NA
ATOM     47  N   UNL     1     -23.435   0.417  52.077  1.00  0.00    -0.216 NA
ATOM     48  C   UNL     1     -22.595  -1.475  50.926  1.00  0.00     0.150 A 
ATOM     49  C   UNL     1     -24.267   0.655  51.048  1.00  0.00     0.226 A 
ATOM     50  C   UNL     1     -23.469  -1.211  49.865  1.00  0.00     0.155 A 
ATOM     51  N   UNL     1     -24.294  -0.143  49.948  1.00  0.00    -0.217 NA
BRANCH  50  52
ATOM     52  N   UNL     1     -23.466  -2.078  48.721  1.00  0.00    -0.382 N 
ATOM     53  H   UNL     1     -24.299  -2.618  48.416  1.00  0.00     0.158 HD
ATOM     54  H   UNL     1     -22.536  -2.122  48.208  1.00  0.00     0.158 HD
ENDBRANCH  50  52
ENDBRANCH  38  43
ENDBRANCH  33  34
ENDBRANCH  32  33
ENDBRANCH  28  32
ENDBRANCH   1  28
TORSDOF 18
ENDMDL
MODEL 7
REMARK VINA RESULT:   -10.206      2.087     11.255
REMARK INTER + INTRA:         -21.814
REMARK INTER:                 -19.489
REMARK INTRA:                  -2.325
REMARK UNBOUND:                -2.956
REMARK SMILES NC(=O)C1=CN([C@@H]2O[C@H](CO[P@](=O)(O)O[P@@](=O)(O)OC[C@H]3O[C@@H](n4cnc5c(N)ncnc54)[C@H](O)[C@@H]3O)[C@@H](O)[C@H]2O)C=CC1
REMARK SMILES IDX 15 1 12 2 13 3 11 4 10 5 9 6 7 7 40 8 8 9 38 10 6 11 44 12
REMARK SMILES IDX 43 13 4 14 42 15 5 16 2 17 3 18 1 19 41 22 39 24 14 26 16 28
REMARK SMILES IDX 17 29 18 30 19 32 20 33 21 34 36 35 22 36 34 37 23 38 37 39
REMARK SMILES IDX 35 41 24 43 25 44 33 45 26 46 32 47 27 48 31 49 28 50 30 51
REMARK SMILES IDX 29 52
REMARK H PARENT 1 20 1 21 41 23 39 25 14 27 18 31 37 40 35 42 29 53 29 54
ROOT
ATOM      1  O   UNL     1     -17.963   4.261  55.324  1.00  0.00    -0.185 OA
ENDROOT
BRANCH   1   2
ATOM      2  P   UNL     1     -16.989   5.555  54.780  1.00  0.00     0.481 P 
ATOM      3  O   UNL     1     -17.647   6.207  53.601  1.00  0.00    -0.228 OA
BRANCH   2   4
ATOM      4  O   UNL     1     -15.475   4.951  54.300  1.00  0.00    -0.284 OA
BRANCH   4   5
ATOM      5  C   UNL     1     -15.263   3.787  55.002  1.00  0.00     0.208 C 
BRANCH   5   6
ATOM      6  C   UNL     1     -14.324   3.980  56.175  1.00  0.00     0.179 C 
ATOM      7  C   UNL     1     -13.262   5.329  57.513  1.00  0.00     0.250 C 
ATOM      8  C   UNL     1     -14.211   4.587  58.447  1.00  0.00     0.195 C 
ATOM      9  O   UNL     1     -13.869   5.290  56.261  1.00  0.00    -0.347 OA
ATOM     10  C   UNL     1     -15.077   3.831  57.476  1.00  0.00     0.179 C 
BRANCH   7  11
ATOM     11  N   UNL     1     -13.031   6.677  57.974  1.00  0.00    -0.326 N 
ATOM     12  C   UNL     1     -12.537   9.377  58.764  1.00  0.00     0.071 C 
ATOM     13  C   UNL     1     -12.337   8.853  57.408  1.00  0.00    -0.004 C 
ATOM     14  C   UNL     1     -13.028   8.329  59.672  1.00  0.00     0.037 C 
ATOM     15  C   UNL     1     -12.556   7.621  57.022  1.00  0.00     0.084 C 
ATOM     16  C   UNL     1     -13.260   7.078  59.319  1.00  0.00     0.098 C 
BRANCH  14  17
ATOM     17  C   UNL     1     -13.282   8.691  61.080  1.00  0.00     0.246 C 
ATOM     18  O   UNL     1     -12.397   8.526  61.973  1.00  0.00    -0.270 OA
ATOM     19  N   UNL     1     -14.524   9.240  61.504  1.00  0.00    -0.366 N 
ATOM     20  H   UNL     1     -14.515  10.161  61.990  1.00  0.00     0.159 HD
ATOM     21  H   UNL     1     -15.444   8.787  61.364  1.00  0.00     0.159 HD
ENDBRANCH  14  17
ENDBRANCH   7  11
BRANCH   8  22
ATOM     22  O   UNL     1     -13.518   3.724  59.295  1.00  0.00    -0.386 OA
ATOM     23  H   UNL     1     -12.545   3.830  59.123  1.00  0.00     0.211 HD
ENDBRANCH   8  22
BRANCH  10  24
ATOM     24  O   UNL     1     -15.189   2.480  57.812  1.00  0.00    -0.387 OA
ATOM     25  H   UNL     1     -14.638   2.345  58.634  1.00  0.00     0.211 HD
ENDBRANCH  10  24
ENDBRANCH   5   6
ENDBRANCH   4   5
ENDBRANCH   2   4
BRANCH   2  26
ATOM     26  O   UNL     1     -16.790   6.585  56.090  1.00  0.00    -0.302 OA
ATOM     27  H   UNL     1     -17.580   7.176  56.138  1.00  0.00     0.223 HD
ENDBRANCH   2  26
ENDBRANCH   1   2
BRANCH   1  28
ATOM     28  P   UNL     1     -19.538   4.852  55.524  1.00  0.00     0.481 P 
ATOM     29  O   UNL     1     -19.434   6.086  56.402  1.00  0.00    -0.228 OA
BRANCH  28  30
ATOM     30  O   UNL     1     -20.169   5.333  54.018  1.00  0.00    -0.302 OA
ATOM     31  H   UNL     1     -19.430   5.765  53.490  1.00  0.00     0.223 HD
ENDBRANCH  28  30
BRANCH  28  32
ATOM     32  O   UNL     1     -20.498   3.667  56.230  1.00  0.00    -0.284 OA
BRANCH  32  33
ATOM     33  C   UNL     1     -21.684   3.455  55.519  1.00  0.00     0.208 C 
BRANCH  33  34
ATOM     34  C   UNL     1     -22.032   1.978  55.481  1.00  0.00     0.179 C 
ATOM     35  C   UNL     1     -20.837   1.138  55.947  1.00  0.00     0.179 C 
ATOM     36  O   UNL     1     -22.185   1.509  54.178  1.00  0.00    -0.347 OA
ATOM     37  C   UNL     1     -21.173  -0.212  55.369  1.00  0.00     0.195 C 
ATOM     38  C   UNL     1     -22.278   0.146  54.383  1.00  0.00     0.253 C 
BRANCH  35  39
ATOM     39  O   UNL     1     -20.814   1.015  57.332  1.00  0.00    -0.387 OA
ATOM     40  H   UNL     1     -21.481   1.617  57.715  1.00  0.00     0.211 HD
ENDBRANCH  35  39
BRANCH  37  41
ATOM     41  O   UNL     1     -21.739  -1.062  56.301  1.00  0.00    -0.386 OA
ATOM     42  H   UNL     1     -21.037  -1.299  56.945  1.00  0.00     0.211 HD
ENDBRANCH  37  41
BRANCH  38  43
ATOM     43  N   UNL     1     -22.088  -0.586  53.121  1.00  0.00    -0.285 N 
ATOM     44  C   UNL     1     -21.166  -1.561  52.890  1.00  0.00     0.204 A 
ATOM     45  C   UNL     1     -22.805  -0.403  51.988  1.00  0.00     0.167 A 
ATOM     46  N   UNL     1     -21.299  -1.990  51.622  1.00  0.00    -0.231 NA
ATOM     47  N   UNL     1     -23.816   0.415  51.663  1.00  0.00    -0.216 NA
ATOM     48  C   UNL     1     -22.301  -1.295  51.039  1.00  0.00     0.150 A 
ATOM     49  C   UNL     1     -24.345   0.376  50.428  1.00  0.00     0.226 A 
ATOM     50  C   UNL     1     -22.866  -1.321  49.759  1.00  0.00     0.155 A 
ATOM     51  N   UNL     1     -23.884  -0.478  49.477  1.00  0.00    -0.217 NA
BRANCH  50  52
ATOM     52  N   UNL     1     -22.349  -2.238  48.782  1.00  0.00    -0.382 N 
ATOM     53  H   UNL     1     -22.679  -2.264  47.798  1.00  0.00     0.158 HD
ATOM     54  H   UNL     1     -21.597  -2.891  49.151  1.00  0.00     0.158 HD
ENDBRANCH  50  52
ENDBRANCH  38  43
ENDBRANCH  33  34
ENDBRANCH  32  33
ENDBRANCH  28  32
ENDBRANCH   1  28
TORSDOF 18
ENDMDL
MODEL 8
REMARK VINA RESULT:    -9.967      2.197     11.500
REMARK INTER + INTRA:         -21.373
REMARK INTER:                 -19.020
REMARK INTRA:                  -2.352
REMARK UNBOUND:                -2.956
REMARK SMILES NC(=O)C1=CN([C@@H]2O[C@H](CO[P@](=O)(O)O[P@@](=O)(O)OC[C@H]3O[C@@H](n4cnc5c(N)ncnc54)[C@H](O)[C@@H]3O)[C@@H](O)[C@H]2O)C=CC1
REMARK SMILES IDX 15 1 12 2 13 3 11 4 10 5 9 6 7 7 40 8 8 9 38 10 6 11 44 12
REMARK SMILES IDX 43 13 4 14 42 15 5 16 2 17 3 18 1 19 41 22 39 24 14 26 16 28
REMARK SMILES IDX 17 29 18 30 19 32 20 33 21 34 36 35 22 36 34 37 23 38 37 39
REMARK SMILES IDX 35 41 24 43 25 44 33 45 26 46 32 47 27 48 31 49 28 50 30 51
REMARK SMILES IDX 29 52
REMARK H PARENT 1 20 1 21 41 23 39 25 14 27 18 31 37 40 35 42 29 53 29 54
ROOT
ATOM      1  O   UNL     1     -18.512   4.863  56.295  1.00  0.00    -0.185 OA
ENDROOT
BRANCH   1   2
ATOM      2  P   UNL     1     -17.270   3.847  55.707  1.00  0.00     0.481 P 
ATOM      3  O   UNL     1     -16.497   3.293  56.865  1.00  0.00    -0.228 OA
BRANCH   2   4
ATOM      4  O   UNL     1     -16.220   4.757  54.729  1.00  0.00    -0.284 OA
BRANCH   4   5
ATOM      5  C   UNL     1     -14.960   4.636  55.268  1.00  0.00     0.208 C 
BRANCH   5   6
ATOM      6  C   UNL     1     -14.394   5.965  55.723  1.00  0.00     0.179 C 
ATOM      7  C   UNL     1     -14.167   7.458  57.290  1.00  0.00     0.250 C 
ATOM      8  C   UNL     1     -12.739   6.976  57.058  1.00  0.00     0.195 C 
ATOM      9  O   UNL     1     -14.982   6.399  56.905  1.00  0.00    -0.347 OA
ATOM     10  C   UNL     1     -12.952   5.803  56.141  1.00  0.00     0.179 C 
BRANCH   7  11
ATOM     11  N   UNL     1     -14.367   7.837  58.669  1.00  0.00    -0.326 N 
ATOM     12  C   UNL     1     -14.891   8.611  61.368  1.00  0.00     0.071 C 
ATOM     13  C   UNL     1     -15.891   8.595  60.293  1.00  0.00    -0.004 C 
ATOM     14  C   UNL     1     -13.576   8.174  60.876  1.00  0.00     0.037 C 
ATOM     15  C   UNL     1     -15.675   8.245  59.050  1.00  0.00     0.084 C 
ATOM     16  C   UNL     1     -13.321   7.815  59.631  1.00  0.00     0.098 C 
BRANCH  14  17
ATOM     17  C   UNL     1     -12.453   8.133  61.833  1.00  0.00     0.246 C 
ATOM     18  O   UNL     1     -11.507   7.298  61.706  1.00  0.00    -0.270 OA
ATOM     19  N   UNL     1     -12.375   9.024  62.940  1.00  0.00    -0.366 N 
ATOM     20  H   UNL     1     -11.528   9.622  63.032  1.00  0.00     0.159 HD
ATOM     21  H   UNL     1     -13.105   9.120  63.668  1.00  0.00     0.159 HD
ENDBRANCH  14  17
ENDBRANCH   7  11
BRANCH   8  22
ATOM     22  O   UNL     1     -11.961   7.963  56.455  1.00  0.00    -0.386 OA
ATOM     23  H   UNL     1     -12.477   8.352  55.701  1.00  0.00     0.211 HD
ENDBRANCH   8  22
BRANCH  10  24
ATOM     24  O   UNL     1     -12.120   5.853  55.020  1.00  0.00    -0.387 OA
ATOM     25  H   UNL     1     -11.195   5.662  55.345  1.00  0.00     0.211 HD
ENDBRANCH  10  24
ENDBRANCH   5   6
ENDBRANCH   4   5
ENDBRANCH   2   4
BRANCH   2  26
ATOM     26  O   UNL     1     -18.020   2.669  54.776  1.00  0.00    -0.302 OA
ATOM     27  H   UNL     1     -18.922   2.513  55.148  1.00  0.00     0.223 HD
ENDBRANCH   2  26
ENDBRANCH   1   2
BRANCH   1  28
ATOM     28  P   UNL     1     -19.578   5.166  55.013  1.00  0.00     0.481 P 
ATOM     29  O   UNL     1     -20.406   6.375  55.409  1.00  0.00    -0.228 OA
BRANCH  28  30
ATOM     30  O   UNL     1     -18.698   5.568  53.613  1.00  0.00    -0.302 OA
ATOM     31  H   UNL     1     -19.094   5.066  52.836  1.00  0.00     0.223 HD
ENDBRANCH  28  30
BRANCH  28  32
ATOM     32  O   UNL     1     -20.542   3.813  54.752  1.00  0.00    -0.284 OA
BRANCH  32  33
ATOM     33  C   UNL     1     -21.341   3.513  55.861  1.00  0.00     0.208 C 
BRANCH  33  34
ATOM     34  C   UNL     1     -21.916   2.113  55.745  1.00  0.00     0.179 C 
ATOM     35  C   UNL     1     -20.930   1.085  56.313  1.00  0.00     0.179 C 
ATOM     36  O   UNL     1     -21.999   1.688  54.421  1.00  0.00    -0.347 OA
ATOM     37  C   UNL     1     -21.414  -0.187  55.665  1.00  0.00     0.195 C 
ATOM     38  C   UNL     1     -22.332   0.357  54.577  1.00  0.00     0.253 C 
BRANCH  35  39
ATOM     39  O   UNL     1     -21.080   0.946  57.689  1.00  0.00    -0.387 OA
ATOM     40  H   UNL     1     -20.404   1.491  58.138  1.00  0.00     0.211 HD
ENDBRANCH  35  39
BRANCH  37  41
ATOM     41  O   UNL     1     -22.209  -0.942  56.508  1.00  0.00    -0.386 OA
ATOM     42  H   UNL     1     -22.003  -1.885  56.335  1.00  0.00     0.211 HD
ENDBRANCH  37  41
BRANCH  38  43
ATOM     43  N   UNL     1     -22.125  -0.384  53.323  1.00  0.00    -0.285 N 
ATOM     44  C   UNL     1     -21.163  -1.320  53.093  1.00  0.00     0.204 A 
ATOM     45  C   UNL     1     -22.864  -0.249  52.197  1.00  0.00     0.167 A 
ATOM     46  N   UNL     1     -21.293  -1.773  51.833  1.00  0.00    -0.231 NA
ATOM     47  N   UNL     1     -23.915   0.517  51.874  1.00  0.00    -0.216 NA
ATOM     48  C   UNL     1     -22.332  -1.132  51.254  1.00  0.00     0.150 A 
ATOM     49  C   UNL     1     -24.457   0.436  50.647  1.00  0.00     0.226 A 
ATOM     50  C   UNL     1     -22.911  -1.201  49.982  1.00  0.00     0.155 A 
ATOM     51  N   UNL     1     -23.971  -0.409  49.702  1.00  0.00    -0.217 NA
BRANCH  50  52
ATOM     52  N   UNL     1     -22.367  -2.108  49.011  1.00  0.00    -0.382 N 
ATOM     53  H   UNL     1     -22.840  -2.331  48.115  1.00  0.00     0.158 HD
ATOM     54  H   UNL     1     -21.433  -2.534  49.287  1.00  0.00     0.158 HD
ENDBRANCH  50  52
ENDBRANCH  38  43
ENDBRANCH  33  34
ENDBRANCH  32  33
ENDBRANCH  28  32
ENDBRANCH   1  28
TORSDOF 18
ENDMDL
MODEL 9
REMARK VINA RESULT:    -9.389      3.888      5.493
REMARK INTER + INTRA:         -20.303
REMARK INTER:                 -17.454
REMARK INTRA:                  -2.850
REMARK UNBOUND:                -2.956
REMARK SMILES NC(=O)C1=CN([C@@H]2O[C@H](CO[P@](=O)(O)O[P@@](=O)(O)OC[C@H]3O[C@@H](n4cnc5c(N)ncnc54)[C@H](O)[C@@H]3O)[C@@H](O)[C@H]2O)C=CC1
REMARK SMILES IDX 15 1 12 2 13 3 11 4 10 5 9 6 7 7 40 8 8 9 38 10 6 11 44 12
REMARK SMILES IDX 43 13 4 14 42 15 5 16 2 17 3 18 1 19 41 22 39 24 14 26 16 28
REMARK SMILES IDX 17 29 18 30 19 32 20 33 21 34 36 35 22 36 34 37 23 38 37 39
REMARK SMILES IDX 35 41 24 43 25 44 33 45 26 46 32 47 27 48 31 49 28 50 30 51
REMARK SMILES IDX 29 52
REMARK H PARENT 1 20 1 21 41 23 39 25 14 27 18 31 37 40 35 42 29 53 29 54
ROOT
ATOM      1  O   UNL     1     -19.228  -0.429  59.515  1.00  0.00    -0.185 OA
ENDROOT
BRANCH   1   2
ATOM      2  P   UNL     1     -20.908  -0.614  59.761  1.00  0.00     0.481 P 
ATOM      3  O   UNL     1     -21.181  -1.992  60.284  1.00  0.00    -0.228 OA
BRANCH   2   4
ATOM      4  O   UNL     1     -21.715  -0.419  58.279  1.00  0.00    -0.284 OA
BRANCH   4   5
ATOM      5  C   UNL     1     -21.621   0.911  57.940  1.00  0.00     0.208 C 
BRANCH   5   6
ATOM      6  C   UNL     1     -20.999   1.120  56.575  1.00  0.00     0.179 C 
ATOM      7  C   UNL     1     -20.766   0.468  54.512  1.00  0.00     0.250 C 
ATOM      8  C   UNL     1     -21.428   1.834  54.373  1.00  0.00     0.195 C 
ATOM      9  O   UNL     1     -21.143  -0.001  55.766  1.00  0.00    -0.347 OA
ATOM     10  C   UNL     1     -21.775   2.158  55.800  1.00  0.00     0.179 C 
BRANCH   7  11
ATOM     11  N   UNL     1     -21.174  -0.415  53.445  1.00  0.00    -0.326 N 
ATOM     12  C   UNL     1     -21.894  -2.252  51.379  1.00  0.00     0.071 C 
ATOM     13  C   UNL     1     -20.871  -2.502  52.402  1.00  0.00    -0.004 C 
ATOM     14  C   UNL     1     -22.505  -0.926  51.554  1.00  0.00     0.037 C 
ATOM     15  C   UNL     1     -20.524  -1.677  53.357  1.00  0.00     0.084 C 
ATOM     16  C   UNL     1     -22.182  -0.068  52.503  1.00  0.00     0.098 C 
BRANCH  14  17
ATOM     17  C   UNL     1     -23.557  -0.514  50.603  1.00  0.00     0.246 C 
ATOM     18  O   UNL     1     -23.682  -1.075  49.473  1.00  0.00    -0.270 OA
ATOM     19  N   UNL     1     -24.479   0.527  50.906  1.00  0.00    -0.366 N 
ATOM     20  H   UNL     1     -25.497   0.309  50.870  1.00  0.00     0.159 HD
ATOM     21  H   UNL     1     -24.209   1.493  51.160  1.00  0.00     0.159 HD
ENDBRANCH  14  17
ENDBRANCH   7  11
BRANCH   8  22
ATOM     22  O   UNL     1     -20.549   2.773  53.834  1.00  0.00    -0.386 OA
ATOM     23  H   UNL     1     -19.707   2.307  53.585  1.00  0.00     0.211 HD
ENDBRANCH   8  22
BRANCH  10  24
ATOM     24  O   UNL     1     -21.357   3.440  56.166  1.00  0.00    -0.387 OA
ATOM     25  H   UNL     1     -20.364   3.456  56.059  1.00  0.00     0.211 HD
ENDBRANCH  10  24
ENDBRANCH   5   6
ENDBRANCH   4   5
ENDBRANCH   2   4
BRANCH   2  26
ATOM     26  O   UNL     1     -21.372   0.607  60.815  1.00  0.00    -0.302 OA
ATOM     27  H   UNL     1     -20.827   1.407  60.616  1.00  0.00     0.223 HD
ENDBRANCH   2  26
ENDBRANCH   1   2
BRANCH   1  28
ATOM     28  P   UNL     1     -18.474  -0.506  61.031  1.00  0.00     0.481 P 
ATOM     29  O   UNL     1     -18.945   0.706  61.815  1.00  0.00    -0.228 OA
BRANCH  28  30
ATOM     30  O   UNL     1     -18.989  -1.900  61.860  1.00  0.00    -0.302 OA
ATOM     31  H   UNL     1     -18.252  -2.186  62.483  1.00  0.00     0.223 HD
ENDBRANCH  28  30
BRANCH  28  32
ATOM     32  O   UNL     1     -16.806  -0.505  60.829  1.00  0.00    -0.284 OA
BRANCH  32  33
ATOM     33  C   UNL     1     -16.191   0.544  61.523  1.00  0.00     0.208 C 
BRANCH  33  34
ATOM     34  C   UNL     1     -15.392   1.419  60.575  1.00  0.00     0.179 C 
ATOM     35  C   UNL     1     -14.665   2.521  61.354  1.00  0.00     0.179 C 
ATOM     36  O   UNL     1     -16.215   2.185  59.751  1.00  0.00    -0.347 OA
ATOM     37  C   UNL     1     -14.388   3.527  60.267  1.00  0.00     0.195 C 
ATOM     38  C   UNL     1     -15.299   3.029  59.152  1.00  0.00     0.253 C 
BRANCH  35  39
ATOM     39  O   UNL     1     -13.442   2.073  61.842  1.00  0.00    -0.387 OA
ATOM     40  H   UNL     1     -13.588   1.615  62.693  1.00  0.00     0.211 HD
ENDBRANCH  35  39
BRANCH  37  41
ATOM     41  O   UNL     1     -13.094   3.443  59.784  1.00  0.00    -0.386 OA
ATOM     42  H   UNL     1     -12.736   4.356  59.749  1.00  0.00     0.211 HD
ENDBRANCH  37  41
BRANCH  38  43
ATOM     43  N   UNL     1     -15.978   4.163  58.508  1.00  0.00    -0.285 N 
ATOM     44  C   UNL     1     -15.959   5.457  58.932  1.00  0.00     0.204 A 
ATOM     45  C   UNL     1     -16.730   4.097  57.385  1.00  0.00     0.167 A 
ATOM     46  N   UNL     1     -16.693   6.201  58.086  1.00  0.00    -0.231 NA
ATOM     47  N   UNL     1     -17.077   3.091  56.570  1.00  0.00    -0.216 NA
ATOM     48  C   UNL     1     -17.183   5.392  57.121  1.00  0.00     0.150 A 
ATOM     49  C   UNL     1     -17.857   3.327  55.500  1.00  0.00     0.226 A 
ATOM     50  C   UNL     1     -17.994   5.617  56.002  1.00  0.00     0.155 A 
ATOM     51  N   UNL     1     -18.317   4.572  55.209  1.00  0.00    -0.217 NA
BRANCH  50  52
ATOM     52  N   UNL     1     -18.459   6.948  55.729  1.00  0.00    -0.382 N 
ATOM     53  H   UNL     1     -19.447   7.166  55.496  1.00  0.00     0.158 HD
ATOM     54  H   UNL     1     -17.705   7.694  55.786  1.00  0.00     0.158 HD
ENDBRANCH  50  52
ENDBRANCH  38  43
ENDBRANCH  33  34
ENDBRANCH  32  33
ENDBRANCH  28  32
ENDBRANCH   1  28
TORSDOF 18
ENDMDL
