MODEL 1
REMARK VINA RESULT:   -10.732      0.000      0.000
REMARK INTER + INTRA:         -23.179
REMARK INTER:                 -19.829
REMARK INTRA:                  -3.350
REMARK UNBOUND:                -3.350
REMARK SMILES NC(=O)C1=CN([C@@H]2O[C@H](CO[P@](=O)(O)O[P@@](=O)(O)OC[C@H]3O[C@@H](n4cnc5c(N)ncnc54)[C@H](O)[C@@H]3O)[C@@H](O)[C@H]2O)C=CC1
REMARK SMILES IDX 15 1 12 2 13 3 11 4 10 5 9 6 7 7 40 8 8 9 38 10 6 11 44 12
REMARK SMILES IDX 43 13 4 14 42 15 5 16 2 17 3 18 1 19 41 22 39 24 14 26 16 28
REMARK SMILES IDX 17 29 18 30 19 32 20 33 21 34 36 35 22 36 34 37 23 38 37 39
REMARK SMILES IDX 35 41 24 43 25 44 33 45 26 46 32 47 27 48 31 49 28 50 30 51
REMARK SMILES IDX 29 52
REMARK H PARENT 1 20 1 21 41 23 39 25 14 27 18 31 37 40 35 42 29 53 29 54
ROOT
ATOM      1  O   UNL     1      13.400 -17.690  52.676  1.00  0.00    -0.185 OA
ENDROOT
BRANCH   1   2
ATOM      2  P   UNL     1      13.312 -16.383  53.773  1.00  0.00     0.481 P 
ATOM      3  O   UNL     1      14.237 -16.641  54.923  1.00  0.00    -0.228 OA
BRANCH   2   4
ATOM      4  O   UNL     1      11.724 -16.255  54.363  1.00  0.00    -0.284 OA
BRANCH   4   5
ATOM      5  C   UNL     1      11.714 -15.227  55.277  1.00  0.00     0.208 C 
BRANCH   5   6
ATOM      6  C   UNL     1      11.002 -13.995  54.758  1.00  0.00     0.179 C 
ATOM      7  C   UNL     1      11.013 -12.233  53.481  1.00  0.00     0.250 C 
ATOM      8  C   UNL     1       9.890 -13.080  52.895  1.00  0.00     0.195 C 
ATOM      9  O   UNL     1      11.872 -13.135  54.101  1.00  0.00    -0.347 OA
ATOM     10  C   UNL     1      10.050 -14.373  53.647  1.00  0.00     0.179 C 
BRANCH   7  11
ATOM     11  N   UNL     1      11.670 -11.461  52.452  1.00  0.00    -0.326 N 
ATOM     12  C   UNL     1      12.921  -9.822  50.475  1.00  0.00     0.071 C 
ATOM     13  C   UNL     1      12.107  -9.317  51.587  1.00  0.00    -0.004 C 
ATOM     14  C   UNL     1      13.011 -11.290  50.508  1.00  0.00     0.037 C 
ATOM     15  C   UNL     1      11.524 -10.047  52.505  1.00  0.00     0.084 C 
ATOM     16  C   UNL     1      12.438 -12.058  51.416  1.00  0.00     0.098 C 
BRANCH  14  17
ATOM     17  C   UNL     1      13.796 -11.963  49.454  1.00  0.00     0.246 C 
ATOM     18  O   UNL     1      14.179 -11.341  48.418  1.00  0.00    -0.270 OA
ATOM     19  N   UNL     1      14.162 -13.334  49.549  1.00  0.00    -0.366 N 
ATOM     20  H   UNL     1      15.172 -13.580  49.495  1.00  0.00     0.159 HD
ATOM     21  H   UNL     1      13.490 -14.114  49.667  1.00  0.00     0.159 HD
ENDBRANCH  14  17
ENDBRANCH   7  11
BRANCH   8  22
ATOM     22  O   UNL     1       8.643 -12.503  53.128  1.00  0.00    -0.386 OA
ATOM     23  H   UNL     1       8.782 -11.566  53.428  1.00  0.00     0.211 HD
ENDBRANCH   8  22
BRANCH  10  24
ATOM     24  O   UNL     1       8.841 -14.823  54.184  1.00  0.00    -0.387 OA
ATOM     25  H   UNL     1       9.027 -15.067  55.135  1.00  0.00     0.211 HD
ENDBRANCH  10  24
ENDBRANCH   5   6
ENDBRANCH   4   5
ENDBRANCH   2   4
BRANCH   2  26
ATOM     26  O   UNL     1      13.696 -15.002  52.900  1.00  0.00    -0.302 OA
ATOM     27  H   UNL     1      12.976 -14.340  53.040  1.00  0.00     0.223 HD
ENDBRANCH   2  26
ENDBRANCH   1   2
BRANCH   1  28
ATOM     28  P   UNL     1      12.653 -19.025  53.407  1.00  0.00     0.481 P 
ATOM     29  O   UNL     1      13.449 -20.250  52.994  1.00  0.00    -0.228 OA
BRANCH  28  30
ATOM     30  O   UNL     1      12.748 -18.883  55.100  1.00  0.00    -0.302 OA
ATOM     31  H   UNL     1      11.887 -19.226  55.494  1.00  0.00     0.223 HD
ENDBRANCH  28  30
BRANCH  28  32
ATOM     32  O   UNL     1      11.055 -19.122  52.897  1.00  0.00    -0.284 OA
BRANCH  32  33
ATOM     33  C   UNL     1      10.504 -20.388  53.126  1.00  0.00     0.208 C 
BRANCH  33  34
ATOM     34  C   UNL     1       9.270 -20.286  54.003  1.00  0.00     0.179 C 
ATOM     35  C   UNL     1       9.216 -18.916  54.689  1.00  0.00     0.179 C 
ATOM     36  O   UNL     1       9.344 -21.127  55.112  1.00  0.00    -0.347 OA
ATOM     37  C   UNL     1       8.283 -19.190  55.840  1.00  0.00     0.195 C 
ATOM     38  C   UNL     1       8.250 -20.714  55.847  1.00  0.00     0.253 C 
BRANCH  35  39
ATOM     39  O   UNL     1       8.614 -17.964  53.872  1.00  0.00    -0.387 OA
ATOM     40  H   UNL     1       8.945 -17.078  54.121  1.00  0.00     0.211 HD
ENDBRANCH  35  39
BRANCH  37  41
ATOM     41  O   UNL     1       6.990 -18.771  55.588  1.00  0.00    -0.386 OA
ATOM     42  H   UNL     1       6.446 -19.574  55.441  1.00  0.00     0.211 HD
ENDBRANCH  37  41
BRANCH  38  43
ATOM     43  N   UNL     1       8.328 -21.216  57.227  1.00  0.00    -0.285 N 
ATOM     44  C   UNL     1       9.419 -21.781  57.816  1.00  0.00     0.204 A 
ATOM     45  C   UNL     1       7.322 -21.193  58.133  1.00  0.00     0.167 A 
ATOM     46  N   UNL     1       9.105 -22.112  59.081  1.00  0.00    -0.231 NA
ATOM     47  N   UNL     1       6.056 -20.758  58.087  1.00  0.00    -0.216 NA
ATOM     48  C   UNL     1       7.819 -21.763  59.307  1.00  0.00     0.150 A 
ATOM     49  C   UNL     1       5.265 -20.867  59.169  1.00  0.00     0.226 A 
ATOM     50  C   UNL     1       6.980 -21.868  60.423  1.00  0.00     0.155 A 
ATOM     51  N   UNL     1       5.710 -21.414  60.330  1.00  0.00    -0.217 NA
BRANCH  50  52
ATOM     52  N   UNL     1       7.488 -22.453  61.632  1.00  0.00    -0.382 N 
ATOM     53  H   UNL     1       8.499 -22.477  61.868  1.00  0.00     0.158 HD
ATOM     54  H   UNL     1       6.741 -22.860  62.268  1.00  0.00     0.158 HD
ENDBRANCH  50  52
ENDBRANCH  38  43
ENDBRANCH  33  34
ENDBRANCH  32  33
ENDBRANCH  28  32
ENDBRANCH   1  28
TORSDOF 18
ENDMDL
MODEL 2
REMARK VINA RESULT:   -10.705      1.644     10.507
REMARK INTER + INTRA:         -23.128
REMARK INTER:                 -19.921
REMARK INTRA:                  -3.207
REMARK UNBOUND:                -3.350
REMARK SMILES NC(=O)C1=CN([C@@H]2O[C@H](CO[P@](=O)(O)O[P@@](=O)(O)OC[C@H]3O[C@@H](n4cnc5c(N)ncnc54)[C@H](O)[C@@H]3O)[C@@H](O)[C@H]2O)C=CC1
REMARK SMILES IDX 15 1 12 2 13 3 11 4 10 5 9 6 7 7 40 8 8 9 38 10 6 11 44 12
REMARK SMILES IDX 43 13 4 14 42 15 5 16 2 17 3 18 1 19 41 22 39 24 14 26 16 28
REMARK SMILES IDX 17 29 18 30 19 32 20 33 21 34 36 35 22 36 34 37 23 38 37 39
REMARK SMILES IDX 35 41 24 43 25 44 33 45 26 46 32 47 27 48 31 49 28 50 30 51
REMARK SMILES IDX 29 52
REMARK H PARENT 1 20 1 21 41 23 39 25 14 27 18 31 37 40 35 42 29 53 29 54
ROOT
ATOM      1  O   UNL     1      12.474 -17.276  52.466  1.00  0.00    -0.185 OA
ENDROOT
BRANCH   1   2
ATOM      2  P   UNL     1      12.566 -18.831  53.167  1.00  0.00     0.481 P 
ATOM      3  O   UNL     1      13.654 -19.612  52.495  1.00  0.00    -0.228 OA
BRANCH   2   4
ATOM      4  O   UNL     1      11.088 -19.637  52.935  1.00  0.00    -0.284 OA
BRANCH   4   5
ATOM      5  C   UNL     1      10.830 -20.348  54.084  1.00  0.00     0.208 C 
BRANCH   5   6
ATOM      6  C   UNL     1       9.396 -20.199  54.549  1.00  0.00     0.179 C 
ATOM      7  C   UNL     1       7.893 -20.512  56.091  1.00  0.00     0.250 C 
ATOM      8  C   UNL     1       7.974 -18.993  55.987  1.00  0.00     0.195 C 
ATOM      9  O   UNL     1       9.134 -20.979  55.668  1.00  0.00    -0.347 OA
ATOM     10  C   UNL     1       9.164 -18.806  55.086  1.00  0.00     0.179 C 
BRANCH   7  11
ATOM     11  N   UNL     1       7.577 -20.922  57.439  1.00  0.00    -0.326 N 
ATOM     12  C   UNL     1       6.827 -21.695  60.084  1.00  0.00     0.071 C 
ATOM     13  C   UNL     1       5.914 -21.117  59.091  1.00  0.00    -0.004 C 
ATOM     14  C   UNL     1       8.188 -21.827  59.541  1.00  0.00     0.037 C 
ATOM     15  C   UNL     1       6.233 -20.756  57.874  1.00  0.00     0.084 C 
ATOM     16  C   UNL     1       8.547 -21.472  58.321  1.00  0.00     0.098 C 
BRANCH  14  17
ATOM     17  C   UNL     1       9.234 -22.392  60.415  1.00  0.00     0.246 C 
ATOM     18  O   UNL     1       9.329 -22.056  61.634  1.00  0.00    -0.270 OA
ATOM     19  N   UNL     1      10.183 -23.338  59.937  1.00  0.00    -0.366 N 
ATOM     20  H   UNL     1      10.251 -24.257  60.423  1.00  0.00     0.159 HD
ATOM     21  H   UNL     1      10.818 -23.178  59.134  1.00  0.00     0.159 HD
ENDBRANCH  14  17
ENDBRANCH   7  11
BRANCH   8  22
ATOM     22  O   UNL     1       6.816 -18.459  55.424  1.00  0.00    -0.386 OA
ATOM     23  H   UNL     1       6.402 -17.843  56.085  1.00  0.00     0.211 HD
ENDBRANCH   8  22
BRANCH  10  24
ATOM     24  O   UNL     1       8.895 -17.926  54.034  1.00  0.00    -0.387 OA
ATOM     25  H   UNL     1       9.330 -18.314  53.222  1.00  0.00     0.211 HD
ENDBRANCH  10  24
ENDBRANCH   5   6
ENDBRANCH   4   5
ENDBRANCH   2   4
BRANCH   2  26
ATOM     26  O   UNL     1      12.823 -18.599  54.809  1.00  0.00    -0.302 OA
ATOM     27  H   UNL     1      13.616 -18.019  54.916  1.00  0.00     0.223 HD
ENDBRANCH   2  26
ENDBRANCH   1   2
BRANCH   1  28
ATOM     28  P   UNL     1      13.193 -16.183  53.544  1.00  0.00     0.481 P 
ATOM     29  O   UNL     1      14.520 -16.790  53.961  1.00  0.00    -0.228 OA
BRANCH  28  30
ATOM     30  O   UNL     1      13.514 -14.714  52.746  1.00  0.00    -0.302 OA
ATOM     31  H   UNL     1      12.661 -14.395  52.318  1.00  0.00     0.223 HD
ENDBRANCH  28  30
BRANCH  28  32
ATOM     32  O   UNL     1      12.178 -15.945  54.862  1.00  0.00    -0.284 OA
BRANCH  32  33
ATOM     33  C   UNL     1      12.388 -14.704  55.473  1.00  0.00     0.208 C 
BRANCH  33  34
ATOM     34  C   UNL     1      11.275 -13.736  55.120  1.00  0.00     0.179 C 
ATOM     35  C   UNL     1      10.173 -14.455  54.333  1.00  0.00     0.179 C 
ATOM     36  O   UNL     1      11.683 -12.786  54.185  1.00  0.00    -0.347 OA
ATOM     37  C   UNL     1       9.476 -13.300  53.663  1.00  0.00     0.195 C 
ATOM     38  C   UNL     1      10.485 -12.176  53.868  1.00  0.00     0.253 C 
BRANCH  35  39
ATOM     39  O   UNL     1       9.260 -15.068  55.184  1.00  0.00    -0.387 OA
ATOM     40  H   UNL     1       8.974 -15.914  54.787  1.00  0.00     0.211 HD
ENDBRANCH  35  39
BRANCH  37  41
ATOM     41  O   UNL     1       8.324 -12.918  54.327  1.00  0.00    -0.386 OA
ATOM     42  H   UNL     1       8.350 -11.942  54.420  1.00  0.00     0.211 HD
ENDBRANCH  37  41
BRANCH  38  43
ATOM     43  N   UNL     1      10.613 -11.380  52.638  1.00  0.00    -0.285 N 
ATOM     44  C   UNL     1      10.208 -10.091  52.469  1.00  0.00     0.204 A 
ATOM     45  C   UNL     1      11.158 -11.809  51.475  1.00  0.00     0.167 A 
ATOM     46  N   UNL     1      10.494  -9.709  51.211  1.00  0.00    -0.231 NA
ATOM     47  N   UNL     1      11.703 -12.971  51.090  1.00  0.00    -0.216 NA
ATOM     48  C   UNL     1      11.080 -10.746  50.573  1.00  0.00     0.150 A 
ATOM     49  C   UNL     1      12.175 -13.114  49.839  1.00  0.00     0.226 A 
ATOM     50  C   UNL     1      11.577 -10.914  49.275  1.00  0.00     0.155 A 
ATOM     51  N   UNL     1      12.119 -12.105  48.932  1.00  0.00    -0.217 NA
BRANCH  50  52
ATOM     52  N   UNL     1      11.498  -9.822  48.346  1.00  0.00    -0.382 N 
ATOM     53  H   UNL     1      10.754  -9.100  48.381  1.00  0.00     0.158 HD
ATOM     54  H   UNL     1      12.270  -9.814  47.615  1.00  0.00     0.158 HD
ENDBRANCH  50  52
ENDBRANCH  38  43
ENDBRANCH  33  34
ENDBRANCH  32  33
ENDBRANCH  28  32
ENDBRANCH   1  28
TORSDOF 18
ENDMDL
MODEL 3
REMARK VINA RESULT:   -10.531      0.678      1.386
REMARK INTER + INTRA:         -22.807
REMARK INTER:                 -20.475
REMARK INTRA:                  -2.332
REMARK UNBOUND:                -3.350
REMARK SMILES NC(=O)C1=CN([C@@H]2O[C@H](CO[P@](=O)(O)O[P@@](=O)(O)OC[C@H]3O[C@@H](n4cnc5c(N)ncnc54)[C@H](O)[C@@H]3O)[C@@H](O)[C@H]2O)C=CC1
REMARK SMILES IDX 15 1 12 2 13 3 11 4 10 5 9 6 7 7 40 8 8 9 38 10 6 11 44 12
REMARK SMILES IDX 43 13 4 14 42 15 5 16 2 17 3 18 1 19 41 22 39 24 14 26 16 28
REMARK SMILES IDX 17 29 18 30 19 32 20 33 21 34 36 35 22 36 34 37 23 38 37 39
REMARK SMILES IDX 35 41 24 43 25 44 33 45 26 46 32 47 27 48 31 49 28 50 30 51
REMARK SMILES IDX 29 52
REMARK H PARENT 1 20 1 21 41 23 39 25 14 27 18 31 37 40 35 42 29 53 29 54
ROOT
ATOM      1  O   UNL     1      12.892 -17.675  52.649  1.00  0.00    -0.185 OA
ENDROOT
BRANCH   1   2
ATOM      2  P   UNL     1      13.137 -16.337  53.683  1.00  0.00     0.481 P 
ATOM      3  O   UNL     1      14.269 -16.637  54.618  1.00  0.00    -0.228 OA
BRANCH   2   4
ATOM      4  O   UNL     1      11.728 -16.070  54.594  1.00  0.00    -0.284 OA
BRANCH   4   5
ATOM      5  C   UNL     1      11.966 -14.977  55.395  1.00  0.00     0.208 C 
BRANCH   5   6
ATOM      6  C   UNL     1      11.282 -13.725  54.885  1.00  0.00     0.179 C 
ATOM      7  C   UNL     1      11.294 -12.003  53.554  1.00  0.00     0.250 C 
ATOM      8  C   UNL     1      10.091 -12.807  53.074  1.00  0.00     0.195 C 
ATOM      9  O   UNL     1      12.147 -12.931  54.143  1.00  0.00    -0.347 OA
ATOM     10  C   UNL     1      10.237 -14.084  53.854  1.00  0.00     0.179 C 
BRANCH   7  11
ATOM     11  N   UNL     1      11.915 -11.296  52.459  1.00  0.00    -0.326 N 
ATOM     12  C   UNL     1      13.110  -9.784  50.351  1.00  0.00     0.071 C 
ATOM     13  C   UNL     1      12.436  -9.203  51.519  1.00  0.00    -0.004 C 
ATOM     14  C   UNL     1      13.092 -11.254  50.404  1.00  0.00     0.037 C 
ATOM     15  C   UNL     1      11.882  -9.875  52.497  1.00  0.00     0.084 C 
ATOM     16  C   UNL     1      12.542 -11.964  51.371  1.00  0.00     0.098 C 
BRANCH  14  17
ATOM     17  C   UNL     1      13.729 -11.998  49.300  1.00  0.00     0.246 C 
ATOM     18  O   UNL     1      13.998 -11.437  48.195  1.00  0.00    -0.270 OA
ATOM     19  N   UNL     1      14.072 -13.373  49.419  1.00  0.00    -0.366 N 
ATOM     20  H   UNL     1      15.063 -13.649  49.257  1.00  0.00     0.159 HD
ATOM     21  H   UNL     1      13.403 -14.127  49.655  1.00  0.00     0.159 HD
ENDBRANCH  14  17
ENDBRANCH   7  11
BRANCH   8  22
ATOM     22  O   UNL     1       8.893 -12.158  53.372  1.00  0.00    -0.386 OA
ATOM     23  H   UNL     1       8.507 -11.809  52.526  1.00  0.00     0.211 HD
ENDBRANCH   8  22
BRANCH  10  24
ATOM     24  O   UNL     1       9.048 -14.454  54.487  1.00  0.00    -0.387 OA
ATOM     25  H   UNL     1       9.166 -14.246  55.457  1.00  0.00     0.211 HD
ENDBRANCH  10  24
ENDBRANCH   5   6
ENDBRANCH   4   5
ENDBRANCH   2   4
BRANCH   2  26
ATOM     26  O   UNL     1      13.420 -15.014  52.690  1.00  0.00    -0.302 OA
ATOM     27  H   UNL     1      14.185 -15.229  52.103  1.00  0.00     0.223 HD
ENDBRANCH   2  26
ENDBRANCH   1   2
BRANCH   1  28
ATOM     28  P   UNL     1      12.517 -19.013  53.620  1.00  0.00     0.481 P 
ATOM     29  O   UNL     1      13.513 -20.102  53.265  1.00  0.00    -0.228 OA
BRANCH  28  30
ATOM     30  O   UNL     1      12.737 -18.615  55.260  1.00  0.00    -0.302 OA
ATOM     31  H   UNL     1      13.070 -17.666  55.312  1.00  0.00     0.223 HD
ENDBRANCH  28  30
BRANCH  28  32
ATOM     32  O   UNL     1      10.935 -19.497  53.322  1.00  0.00    -0.284 OA
BRANCH  32  33
ATOM     33  C   UNL     1      10.538 -20.545  54.160  1.00  0.00     0.208 C 
BRANCH  33  34
ATOM     34  C   UNL     1       9.109 -20.344  54.630  1.00  0.00     0.179 C 
ATOM     35  C   UNL     1       8.910 -18.909  55.130  1.00  0.00     0.179 C 
ATOM     36  O   UNL     1       8.833 -21.063  55.791  1.00  0.00    -0.347 OA
ATOM     37  C   UNL     1       7.678 -19.055  55.986  1.00  0.00     0.195 C 
ATOM     38  C   UNL     1       7.590 -20.569  56.135  1.00  0.00     0.253 C 
BRANCH  35  39
ATOM     39  O   UNL     1       8.601 -18.046  54.083  1.00  0.00    -0.387 OA
ATOM     40  H   UNL     1       7.789 -18.362  53.641  1.00  0.00     0.211 HD
ENDBRANCH  35  39
BRANCH  37  41
ATOM     41  O   UNL     1       6.527 -18.658  55.331  1.00  0.00    -0.386 OA
ATOM     42  H   UNL     1       6.237 -17.813  55.736  1.00  0.00     0.211 HD
ENDBRANCH  37  41
BRANCH  38  43
ATOM     43  N   UNL     1       7.254 -20.922  57.523  1.00  0.00    -0.285 N 
ATOM     44  C   UNL     1       6.073 -20.669  58.152  1.00  0.00     0.204 A 
ATOM     45  C   UNL     1       8.071 -21.558  58.395  1.00  0.00     0.167 A 
ATOM     46  N   UNL     1       6.143 -21.140  59.410  1.00  0.00    -0.231 NA
ATOM     47  N   UNL     1       9.323 -22.028  58.304  1.00  0.00    -0.216 NA
ATOM     48  C   UNL     1       7.363 -21.694  59.591  1.00  0.00     0.150 A 
ATOM     49  C   UNL     1       9.896 -22.630  59.361  1.00  0.00     0.226 A 
ATOM     50  C   UNL     1       7.977 -22.324  60.680  1.00  0.00     0.155 A 
ATOM     51  N   UNL     1       9.241 -22.783  60.541  1.00  0.00    -0.217 NA
BRANCH  50  52
ATOM     52  N   UNL     1       7.250 -22.465  61.910  1.00  0.00    -0.382 N 
ATOM     53  H   UNL     1       6.214 -22.481  61.958  1.00  0.00     0.158 HD
ATOM     54  H   UNL     1       7.865 -22.554  62.773  1.00  0.00     0.158 HD
ENDBRANCH  50  52
ENDBRANCH  38  43
ENDBRANCH  33  34
ENDBRANCH  32  33
ENDBRANCH  28  32
ENDBRANCH   1  28
TORSDOF 18
ENDMDL
MODEL 4
REMARK VINA RESULT:   -10.372      1.780     10.893
REMARK INTER + INTRA:         -22.515
REMARK INTER:                 -19.785
REMARK INTRA:                  -2.729
REMARK UNBOUND:                -3.350
REMARK SMILES NC(=O)C1=CN([C@@H]2O[C@H](CO[P@](=O)(O)O[P@@](=O)(O)OC[C@H]3O[C@@H](n4cnc5c(N)ncnc54)[C@H](O)[C@@H]3O)[C@@H](O)[C@H]2O)C=CC1
REMARK SMILES IDX 15 1 12 2 13 3 11 4 10 5 9 6 7 7 40 8 8 9 38 10 6 11 44 12
REMARK SMILES IDX 43 13 4 14 42 15 5 16 2 17 3 18 1 19 41 22 39 24 14 26 16 28
REMARK SMILES IDX 17 29 18 30 19 32 20 33 21 34 36 35 22 36 34 37 23 38 37 39
REMARK SMILES IDX 35 41 24 43 25 44 33 45 26 46 32 47 27 48 31 49 28 50 30 51
REMARK SMILES IDX 29 52
REMARK H PARENT 1 20 1 21 41 23 39 25 14 27 18 31 37 40 35 42 29 53 29 54
ROOT
ATOM      1  O   UNL     1      11.904 -16.875  54.875  1.00  0.00    -0.185 OA
ENDROOT
BRANCH   1   2
ATOM      2  P   UNL     1      12.358 -17.720  53.461  1.00  0.00     0.481 P 
ATOM      3  O   UNL     1      12.313 -16.784  52.291  1.00  0.00    -0.228 OA
BRANCH   2   4
ATOM      4  O   UNL     1      11.261 -18.990  53.192  1.00  0.00    -0.284 OA
BRANCH   4   5
ATOM      5  C   UNL     1      11.053 -19.607  54.404  1.00  0.00     0.208 C 
BRANCH   5   6
ATOM      6  C   UNL     1       9.582 -19.794  54.714  1.00  0.00     0.179 C 
ATOM      7  C   UNL     1       8.035 -20.434  56.104  1.00  0.00     0.250 C 
ATOM      8  C   UNL     1       7.771 -18.941  55.953  1.00  0.00     0.195 C 
ATOM      9  O   UNL     1       9.388 -20.601  55.828  1.00  0.00    -0.347 OA
ATOM     10  C   UNL     1       8.975 -18.489  55.172  1.00  0.00     0.179 C 
BRANCH   7  11
ATOM     11  N   UNL     1       7.679 -20.891  57.427  1.00  0.00    -0.326 N 
ATOM     12  C   UNL     1       6.850 -21.763  60.018  1.00  0.00     0.071 C 
ATOM     13  C   UNL     1       5.956 -21.199  58.999  1.00  0.00    -0.004 C 
ATOM     14  C   UNL     1       8.237 -21.822  59.533  1.00  0.00     0.037 C 
ATOM     15  C   UNL     1       6.312 -20.793  57.806  1.00  0.00     0.084 C 
ATOM     16  C   UNL     1       8.633 -21.422  58.338  1.00  0.00     0.098 C 
BRANCH  14  17
ATOM     17  C   UNL     1       9.268 -22.365  60.438  1.00  0.00     0.246 C 
ATOM     18  O   UNL     1       9.384 -21.949  61.631  1.00  0.00    -0.270 OA
ATOM     19  N   UNL     1      10.178 -23.376  60.022  1.00  0.00    -0.366 N 
ATOM     20  H   UNL     1      10.215 -24.261  60.571  1.00  0.00     0.159 HD
ATOM     21  H   UNL     1      10.812 -23.296  59.208  1.00  0.00     0.159 HD
ENDBRANCH  14  17
ENDBRANCH   7  11
BRANCH   8  22
ATOM     22  O   UNL     1       6.588 -18.701  55.255  1.00  0.00    -0.386 OA
ATOM     23  H   UNL     1       5.825 -18.969  55.832  1.00  0.00     0.211 HD
ENDBRANCH   8  22
BRANCH  10  24
ATOM     24  O   UNL     1       8.624 -17.710  54.067  1.00  0.00    -0.387 OA
ATOM     25  H   UNL     1       8.847 -16.765  54.304  1.00  0.00     0.211 HD
ENDBRANCH  10  24
ENDBRANCH   5   6
ENDBRANCH   4   5
ENDBRANCH   2   4
BRANCH   2  26
ATOM     26  O   UNL     1      13.884 -18.353  53.755  1.00  0.00    -0.302 OA
ATOM     27  H   UNL     1      14.203 -17.996  54.619  1.00  0.00     0.223 HD
ENDBRANCH   2  26
ENDBRANCH   1   2
BRANCH   1  28
ATOM     28  P   UNL     1      13.134 -15.764  55.228  1.00  0.00     0.481 P 
ATOM     29  O   UNL     1      13.962 -16.370  56.347  1.00  0.00    -0.228 OA
BRANCH  28  30
ATOM     30  O   UNL     1      14.145 -15.574  53.872  1.00  0.00    -0.302 OA
ATOM     31  H   UNL     1      15.090 -15.775  54.152  1.00  0.00     0.223 HD
ENDBRANCH  28  30
BRANCH  28  32
ATOM     32  O   UNL     1      12.453 -14.297  55.684  1.00  0.00    -0.284 OA
BRANCH  32  33
ATOM     33  C   UNL     1      11.127 -14.176  55.255  1.00  0.00     0.208 C 
BRANCH  33  34
ATOM     34  C   UNL     1      11.001 -13.094  54.198  1.00  0.00     0.179 C 
ATOM     35  C   UNL     1       9.744 -13.322  53.350  1.00  0.00     0.179 C 
ATOM     36  O   UNL     1      11.992 -13.197  53.223  1.00  0.00    -0.347 OA
ATOM     37  C   UNL     1      10.063 -12.521  52.115  1.00  0.00     0.195 C 
ATOM     38  C   UNL     1      11.557 -12.277  52.288  1.00  0.00     0.253 C 
BRANCH  35  39
ATOM     39  O   UNL     1       8.621 -12.756  53.947  1.00  0.00    -0.387 OA
ATOM     40  H   UNL     1       8.021 -13.472  54.234  1.00  0.00     0.211 HD
ENDBRANCH  35  39
BRANCH  37  41
ATOM     41  O   UNL     1       9.459 -11.277  52.119  1.00  0.00    -0.386 OA
ATOM     42  H   UNL     1       9.089 -11.135  53.016  1.00  0.00     0.211 HD
ENDBRANCH  37  41
BRANCH  38  43
ATOM     43  N   UNL     1      12.253 -12.467  51.006  1.00  0.00    -0.285 N 
ATOM     44  C   UNL     1      13.118 -13.474  50.703  1.00  0.00     0.204 A 
ATOM     45  C   UNL     1      12.139 -11.665  49.922  1.00  0.00     0.167 A 
ATOM     46  N   UNL     1      13.547 -13.310  49.439  1.00  0.00    -0.231 NA
ATOM     47  N   UNL     1      11.437 -10.551  49.673  1.00  0.00    -0.216 NA
ATOM     48  C   UNL     1      12.963 -12.203  48.930  1.00  0.00     0.150 A 
ATOM     49  C   UNL     1      11.523  -9.953  48.472  1.00  0.00     0.226 A 
ATOM     50  C   UNL     1      13.039 -11.566  47.686  1.00  0.00     0.155 A 
ATOM     51  N   UNL     1      12.312 -10.445  47.481  1.00  0.00    -0.217 NA
BRANCH  50  52
ATOM     52  N   UNL     1      13.884 -12.118  46.665  1.00  0.00    -0.382 N 
ATOM     53  H   UNL     1      14.298 -11.549  45.902  1.00  0.00     0.158 HD
ATOM     54  H   UNL     1      14.052 -13.164  46.756  1.00  0.00     0.158 HD
ENDBRANCH  50  52
ENDBRANCH  38  43
ENDBRANCH  33  34
ENDBRANCH  32  33
ENDBRANCH  28  32
ENDBRANCH   1  28
TORSDOF 18
ENDMDL
MODEL 5
REMARK VINA RESULT:   -10.243      1.593     10.770
REMARK INTER + INTRA:         -22.276
REMARK INTER:                 -19.908
REMARK INTRA:                  -2.368
REMARK UNBOUND:                -3.350
REMARK SMILES NC(=O)C1=CN([C@@H]2O[C@H](CO[P@](=O)(O)O[P@@](=O)(O)OC[C@H]3O[C@@H](n4cnc5c(N)ncnc54)[C@H](O)[C@@H]3O)[C@@H](O)[C@H]2O)C=CC1
REMARK SMILES IDX 15 1 12 2 13 3 11 4 10 5 9 6 7 7 40 8 8 9 38 10 6 11 44 12
REMARK SMILES IDX 43 13 4 14 42 15 5 16 2 17 3 18 1 19 41 22 39 24 14 26 16 28
REMARK SMILES IDX 17 29 18 30 19 32 20 33 21 34 36 35 22 36 34 37 23 38 37 39
REMARK SMILES IDX 35 41 24 43 25 44 33 45 26 46 32 47 27 48 31 49 28 50 30 51
REMARK SMILES IDX 29 52
REMARK H PARENT 1 20 1 21 41 23 39 25 14 27 18 31 37 40 35 42 29 53 29 54
ROOT
ATOM      1  O   UNL     1      13.029 -18.453  54.728  1.00  0.00    -0.185 OA
ENDROOT
BRANCH   1   2
ATOM      2  P   UNL     1      12.840 -18.781  53.062  1.00  0.00     0.481 P 
ATOM      3  O   UNL     1      12.697 -17.488  52.318  1.00  0.00    -0.228 OA
BRANCH   2   4
ATOM      4  O   UNL     1      11.433 -19.706  52.831  1.00  0.00    -0.284 OA
BRANCH   4   5
ATOM      5  C   UNL     1      11.177 -20.355  54.016  1.00  0.00     0.208 C 
BRANCH   5   6
ATOM      6  C   UNL     1       9.740 -20.192  54.467  1.00  0.00     0.179 C 
ATOM      7  C   UNL     1       8.209 -20.530  55.976  1.00  0.00     0.250 C 
ATOM      8  C   UNL     1       8.324 -19.011  55.930  1.00  0.00     0.195 C 
ATOM      9  O   UNL     1       9.445 -21.008  55.553  1.00  0.00    -0.347 OA
ATOM     10  C   UNL     1       9.530 -18.816  55.053  1.00  0.00     0.179 C 
BRANCH   7  11
ATOM     11  N   UNL     1       7.865 -20.983  57.304  1.00  0.00    -0.326 N 
ATOM     12  C   UNL     1       7.312 -21.918  59.945  1.00  0.00     0.071 C 
ATOM     13  C   UNL     1       8.623 -21.994  59.288  1.00  0.00    -0.004 C 
ATOM     14  C   UNL     1       6.313 -21.295  59.065  1.00  0.00     0.037 C 
ATOM     15  C   UNL     1       8.901 -21.573  58.080  1.00  0.00     0.084 C 
ATOM     16  C   UNL     1       6.555 -20.860  57.842  1.00  0.00     0.098 C 
BRANCH  14  17
ATOM     17  C   UNL     1       4.936 -21.143  59.574  1.00  0.00     0.246 C 
ATOM     18  O   UNL     1       3.972 -20.866  58.798  1.00  0.00    -0.270 OA
ATOM     19  N   UNL     1       4.622 -21.298  60.953  1.00  0.00    -0.366 N 
ATOM     20  H   UNL     1       3.904 -22.005  61.218  1.00  0.00     0.159 HD
ATOM     21  H   UNL     1       5.058 -20.755  61.719  1.00  0.00     0.159 HD
ENDBRANCH  14  17
ENDBRANCH   7  11
BRANCH   8  22
ATOM     22  O   UNL     1       7.185 -18.431  55.373  1.00  0.00    -0.386 OA
ATOM     23  H   UNL     1       6.537 -19.154  55.161  1.00  0.00     0.211 HD
ENDBRANCH   8  22
BRANCH  10  24
ATOM     24  O   UNL     1       9.295 -17.892  54.032  1.00  0.00    -0.387 OA
ATOM     25  H   UNL     1       8.764 -17.149  54.438  1.00  0.00     0.211 HD
ENDBRANCH  10  24
ENDBRANCH   5   6
ENDBRANCH   4   5
ENDBRANCH   2   4
BRANCH   2  26
ATOM     26  O   UNL     1      14.180 -19.677  52.598  1.00  0.00    -0.302 OA
ATOM     27  H   UNL     1      13.948 -20.173  51.775  1.00  0.00     0.223 HD
ENDBRANCH   2  26
ENDBRANCH   1   2
BRANCH   1  28
ATOM     28  P   UNL     1      13.428 -16.814  54.887  1.00  0.00     0.481 P 
ATOM     29  O   UNL     1      14.043 -16.646  56.265  1.00  0.00    -0.228 OA
BRANCH  28  30
ATOM     30  O   UNL     1      14.605 -16.392  53.732  1.00  0.00    -0.302 OA
ATOM     31  H   UNL     1      14.194 -15.738  53.088  1.00  0.00     0.223 HD
ENDBRANCH  28  30
BRANCH  28  32
ATOM     32  O   UNL     1      12.043 -15.879  54.707  1.00  0.00    -0.284 OA
BRANCH  32  33
ATOM     33  C   UNL     1      12.229 -14.568  55.161  1.00  0.00     0.208 C 
BRANCH  33  34
ATOM     34  C   UNL     1      11.123 -13.662  54.651  1.00  0.00     0.179 C 
ATOM     35  C   UNL     1       9.990 -14.496  54.043  1.00  0.00     0.179 C 
ATOM     36  O   UNL     1      11.523 -12.921  53.541  1.00  0.00    -0.347 OA
ATOM     37  C   UNL     1       9.295 -13.476  53.177  1.00  0.00     0.195 C 
ATOM     38  C   UNL     1      10.328 -12.356  53.139  1.00  0.00     0.253 C 
BRANCH  35  39
ATOM     39  O   UNL     1       9.088 -14.912  55.017  1.00  0.00    -0.387 OA
ATOM     40  H   UNL     1       8.351 -15.386  54.584  1.00  0.00     0.211 HD
ENDBRANCH  35  39
BRANCH  37  41
ATOM     41  O   UNL     1       8.168 -12.949  53.780  1.00  0.00    -0.386 OA
ATOM     42  H   UNL     1       7.804 -13.639  54.374  1.00  0.00     0.211 HD
ENDBRANCH  37  41
BRANCH  38  43
ATOM     43  N   UNL     1      10.439 -11.817  51.775  1.00  0.00    -0.285 N 
ATOM     44  C   UNL     1       9.545 -12.000  50.764  1.00  0.00     0.204 A 
ATOM     45  C   UNL     1      11.452 -11.047  51.311  1.00  0.00     0.167 A 
ATOM     46  N   UNL     1       9.990 -11.354  49.671  1.00  0.00    -0.231 NA
ATOM     47  N   UNL     1      12.572 -10.571  51.870  1.00  0.00    -0.216 NA
ATOM     48  C   UNL     1      11.163 -10.757  49.976  1.00  0.00     0.150 A 
ATOM     49  C   UNL     1      13.417  -9.813  51.148  1.00  0.00     0.226 A 
ATOM     50  C   UNL     1      12.055  -9.966  49.242  1.00  0.00     0.155 A 
ATOM     51  N   UNL     1      13.172  -9.507  49.847  1.00  0.00    -0.217 NA
BRANCH  50  52
ATOM     52  N   UNL     1      11.760  -9.666  47.869  1.00  0.00    -0.382 N 
ATOM     53  H   UNL     1      11.339  -8.768  47.563  1.00  0.00     0.158 HD
ATOM     54  H   UNL     1      12.010 -10.443  47.188  1.00  0.00     0.158 HD
ENDBRANCH  50  52
ENDBRANCH  38  43
ENDBRANCH  33  34
ENDBRANCH  32  33
ENDBRANCH  28  32
ENDBRANCH   1  28
TORSDOF 18
ENDMDL
MODEL 6
REMARK VINA RESULT:   -10.127      2.829      4.075
REMARK INTER + INTRA:         -22.061
REMARK INTER:                 -19.254
REMARK INTRA:                  -2.807
REMARK UNBOUND:                -3.350
REMARK SMILES NC(=O)C1=CN([C@@H]2O[C@H](CO[P@](=O)(O)O[P@@](=O)(O)OC[C@H]3O[C@@H](n4cnc5c(N)ncnc54)[C@H](O)[C@@H]3O)[C@@H](O)[C@H]2O)C=CC1
REMARK SMILES IDX 15 1 12 2 13 3 11 4 10 5 9 6 7 7 40 8 8 9 38 10 6 11 44 12
REMARK SMILES IDX 43 13 4 14 42 15 5 16 2 17 3 18 1 19 41 22 39 24 14 26 16 28
REMARK SMILES IDX 17 29 18 30 19 32 20 33 21 34 36 35 22 36 34 37 23 38 37 39
REMARK SMILES IDX 35 41 24 43 25 44 33 45 26 46 32 47 27 48 31 49 28 50 30 51
REMARK SMILES IDX 29 52
REMARK H PARENT 1 20 1 21 41 23 39 25 14 27 18 31 37 40 35 42 29 53 29 54
ROOT
ATOM      1  O   UNL     1      12.302 -16.640  52.646  1.00  0.00    -0.185 OA
ENDROOT
BRANCH   1   2
ATOM      2  P   UNL     1      13.043 -15.712  53.874  1.00  0.00     0.481 P 
ATOM      3  O   UNL     1      12.446 -16.079  55.199  1.00  0.00    -0.228 OA
BRANCH   2   4
ATOM      4  O   UNL     1      12.755 -14.064  53.579  1.00  0.00    -0.284 OA
BRANCH   4   5
ATOM      5  C   UNL     1      12.369 -13.950  52.263  1.00  0.00     0.208 C 
BRANCH   5   6
ATOM      6  C   UNL     1      10.999 -13.322  52.114  1.00  0.00     0.179 C 
ATOM      7  C   UNL     1       9.067 -13.275  51.113  1.00  0.00     0.250 C 
ATOM      8  C   UNL     1       8.706 -13.622  52.553  1.00  0.00     0.195 C 
ATOM      9  O   UNL     1      10.372 -13.725  50.941  1.00  0.00    -0.347 OA
ATOM     10  C   UNL     1      10.058 -13.864  53.164  1.00  0.00     0.179 C 
BRANCH   7  11
ATOM     11  N   UNL     1       8.144 -13.887  50.186  1.00  0.00    -0.326 N 
ATOM     12  C   UNL     1       6.328 -14.990  48.277  1.00  0.00     0.071 C 
ATOM     13  C   UNL     1       6.955 -13.667  48.168  1.00  0.00    -0.004 C 
ATOM     14  C   UNL     1       6.756 -15.681  49.502  1.00  0.00     0.037 C 
ATOM     15  C   UNL     1       7.790 -13.141  49.029  1.00  0.00     0.084 C 
ATOM     16  C   UNL     1       7.594 -15.182  50.393  1.00  0.00     0.098 C 
BRANCH  14  17
ATOM     17  C   UNL     1       6.215 -17.028  49.767  1.00  0.00     0.246 C 
ATOM     18  O   UNL     1       5.249 -17.496  49.090  1.00  0.00    -0.270 OA
ATOM     19  N   UNL     1       6.746 -17.866  50.787  1.00  0.00    -0.366 N 
ATOM     20  H   UNL     1       7.092 -18.811  50.518  1.00  0.00     0.159 HD
ATOM     21  H   UNL     1       6.814 -17.603  51.786  1.00  0.00     0.159 HD
ENDBRANCH  14  17
ENDBRANCH   7  11
BRANCH   8  22
ATOM     22  O   UNL     1       8.041 -12.568  53.179  1.00  0.00    -0.386 OA
ATOM     23  H   UNL     1       7.137 -12.882  53.445  1.00  0.00     0.211 HD
ENDBRANCH   8  22
BRANCH  10  24
ATOM     24  O   UNL     1      10.227 -13.167  54.363  1.00  0.00    -0.387 OA
ATOM     25  H   UNL     1      10.705 -12.320  54.134  1.00  0.00     0.211 HD
ENDBRANCH  10  24
ENDBRANCH   5   6
ENDBRANCH   4   5
ENDBRANCH   2   4
BRANCH   2  26
ATOM     26  O   UNL     1      14.690 -16.018  53.773  1.00  0.00    -0.302 OA
ATOM     27  H   UNL     1      14.917 -16.701  54.451  1.00  0.00     0.223 HD
ENDBRANCH   2  26
ENDBRANCH   1   2
BRANCH   1  28
ATOM     28  P   UNL     1      12.484 -18.275  53.057  1.00  0.00     0.481 P 
ATOM     29  O   UNL     1      13.186 -18.943  51.888  1.00  0.00    -0.228 OA
BRANCH  28  30
ATOM     30  O   UNL     1      13.487 -18.417  54.424  1.00  0.00    -0.302 OA
ATOM     31  H   UNL     1      13.995 -17.555  54.534  1.00  0.00     0.223 HD
ENDBRANCH  28  30
BRANCH  28  32
ATOM     32  O   UNL     1      10.973 -18.953  53.343  1.00  0.00    -0.284 OA
BRANCH  32  33
ATOM     33  C   UNL     1      10.707 -19.091  54.709  1.00  0.00     0.208 C 
BRANCH  33  34
ATOM     34  C   UNL     1       9.566 -20.065  54.939  1.00  0.00     0.179 C 
ATOM     35  C   UNL     1       8.226 -19.407  54.589  1.00  0.00     0.179 C 
ATOM     36  O   UNL     1       9.374 -20.338  56.292  1.00  0.00    -0.347 OA
ATOM     37  C   UNL     1       7.255 -20.283  55.338  1.00  0.00     0.195 C 
ATOM     38  C   UNL     1       8.190 -21.049  56.266  1.00  0.00     0.253 C 
BRANCH  35  39
ATOM     39  O   UNL     1       7.944 -19.522  53.232  1.00  0.00    -0.387 OA
ATOM     40  H   UNL     1       7.020 -19.821  53.124  1.00  0.00     0.211 HD
ENDBRANCH  35  39
BRANCH  37  41
ATOM     41  O   UNL     1       6.653 -21.224  54.523  1.00  0.00    -0.386 OA
ATOM     42  H   UNL     1       7.254 -21.998  54.478  1.00  0.00     0.211 HD
ENDBRANCH  37  41
BRANCH  38  43
ATOM     43  N   UNL     1       7.605 -21.137  57.613  1.00  0.00    -0.285 N 
ATOM     44  C   UNL     1       6.364 -20.713  57.979  1.00  0.00     0.204 A 
ATOM     45  C   UNL     1       8.214 -21.658  58.704  1.00  0.00     0.167 A 
ATOM     46  N   UNL     1       6.190 -20.963  59.289  1.00  0.00    -0.231 NA
ATOM     47  N   UNL     1       9.419 -22.207  58.909  1.00  0.00    -0.216 NA
ATOM     48  C   UNL     1       7.313 -21.545  59.765  1.00  0.00     0.150 A 
ATOM     49  C   UNL     1       9.760 -22.650  60.131  1.00  0.00     0.226 A 
ATOM     50  C   UNL     1       7.687 -22.012  61.031  1.00  0.00     0.155 A 
ATOM     51  N   UNL     1       8.913 -22.559  61.189  1.00  0.00    -0.217 NA
BRANCH  50  52
ATOM     52  N   UNL     1       6.762 -21.898  62.123  1.00  0.00    -0.382 N 
ATOM     53  H   UNL     1       6.729 -22.573  62.911  1.00  0.00     0.158 HD
ATOM     54  H   UNL     1       6.111 -21.060  62.058  1.00  0.00     0.158 HD
ENDBRANCH  50  52
ENDBRANCH  38  43
ENDBRANCH  33  34
ENDBRANCH  32  33
ENDBRANCH  28  32
ENDBRANCH   1  28
TORSDOF 18
ENDMDL
MODEL 7
REMARK VINA RESULT:    -9.871      2.374     11.707
REMARK INTER + INTRA:         -21.588
REMARK INTER:                 -18.652
REMARK INTRA:                  -2.937
REMARK UNBOUND:                -3.350
REMARK SMILES NC(=O)C1=CN([C@@H]2O[C@H](CO[P@](=O)(O)O[P@@](=O)(O)OC[C@H]3O[C@@H](n4cnc5c(N)ncnc54)[C@H](O)[C@@H]3O)[C@@H](O)[C@H]2O)C=CC1
REMARK SMILES IDX 15 1 12 2 13 3 11 4 10 5 9 6 7 7 40 8 8 9 38 10 6 11 44 12
REMARK SMILES IDX 43 13 4 14 42 15 5 16 2 17 3 18 1 19 41 22 39 24 14 26 16 28
REMARK SMILES IDX 17 29 18 30 19 32 20 33 21 34 36 35 22 36 34 37 23 38 37 39
REMARK SMILES IDX 35 41 24 43 25 44 33 45 26 46 32 47 27 48 31 49 28 50 30 51
REMARK SMILES IDX 29 52
REMARK H PARENT 1 20 1 21 41 23 39 25 14 27 18 31 37 40 35 42 29 53 29 54
ROOT
ATOM      1  O   UNL     1      11.408 -17.020  53.096  1.00  0.00    -0.185 OA
ENDROOT
BRANCH   1   2
ATOM      2  P   UNL     1      12.328 -18.401  53.502  1.00  0.00     0.481 P 
ATOM      3  O   UNL     1      12.436 -19.292  52.302  1.00  0.00    -0.228 OA
BRANCH   2   4
ATOM      4  O   UNL     1      11.541 -19.249  54.747  1.00  0.00    -0.284 OA
BRANCH   4   5
ATOM      5  C   UNL     1      10.755 -20.207  54.149  1.00  0.00     0.208 C 
BRANCH   5   6
ATOM      6  C   UNL     1       9.311 -20.138  54.602  1.00  0.00     0.179 C 
ATOM      7  C   UNL     1       7.817 -20.520  56.138  1.00  0.00     0.250 C 
ATOM      8  C   UNL     1       7.808 -19.000  56.013  1.00  0.00     0.195 C 
ATOM      9  O   UNL     1       9.087 -20.917  55.730  1.00  0.00    -0.347 OA
ATOM     10  C   UNL     1       8.992 -18.754  55.118  1.00  0.00     0.179 C 
BRANCH   7  11
ATOM     11  N   UNL     1       7.516 -20.929  57.490  1.00  0.00    -0.326 N 
ATOM     12  C   UNL     1       6.794 -21.707  60.141  1.00  0.00     0.071 C 
ATOM     13  C   UNL     1       5.863 -21.158  59.148  1.00  0.00    -0.004 C 
ATOM     14  C   UNL     1       8.156 -21.806  59.595  1.00  0.00     0.037 C 
ATOM     15  C   UNL     1       6.170 -20.795  57.927  1.00  0.00     0.084 C 
ATOM     16  C   UNL     1       8.503 -21.450  58.372  1.00  0.00     0.098 C 
BRANCH  14  17
ATOM     17  C   UNL     1       9.219 -22.339  60.469  1.00  0.00     0.246 C 
ATOM     18  O   UNL     1       9.291 -22.016  61.693  1.00  0.00    -0.270 OA
ATOM     19  N   UNL     1      10.210 -23.238  59.985  1.00  0.00    -0.366 N 
ATOM     20  H   UNL     1      10.313 -24.159  60.459  1.00  0.00     0.159 HD
ATOM     21  H   UNL     1      10.843 -23.040  59.190  1.00  0.00     0.159 HD
ENDBRANCH  14  17
ENDBRANCH   7  11
BRANCH   8  22
ATOM     22  O   UNL     1       6.625 -18.545  55.435  1.00  0.00    -0.386 OA
ATOM     23  H   UNL     1       6.320 -17.743  55.936  1.00  0.00     0.211 HD
ENDBRANCH   8  22
BRANCH  10  24
ATOM     24  O   UNL     1       8.679 -17.907  54.052  1.00  0.00    -0.387 OA
ATOM     25  H   UNL     1       8.976 -16.992  54.321  1.00  0.00     0.211 HD
ENDBRANCH  10  24
ENDBRANCH   5   6
ENDBRANCH   4   5
ENDBRANCH   2   4
BRANCH   2  26
ATOM     26  O   UNL     1      13.808 -17.841  54.058  1.00  0.00    -0.302 OA
ATOM     27  H   UNL     1      13.656 -17.365  54.910  1.00  0.00     0.223 HD
ENDBRANCH   2  26
ENDBRANCH   1   2
BRANCH   1  28
ATOM     28  P   UNL     1      11.645 -15.867  54.315  1.00  0.00     0.481 P 
ATOM     29  O   UNL     1      10.316 -15.161  54.513  1.00  0.00    -0.228 OA
BRANCH  28  30
ATOM     30  O   UNL     1      12.047 -16.646  55.774  1.00  0.00    -0.302 OA
ATOM     31  H   UNL     1      11.858 -17.629  55.669  1.00  0.00     0.223 HD
ENDBRANCH  28  30
BRANCH  28  32
ATOM     32  O   UNL     1      12.854 -14.796  53.849  1.00  0.00    -0.284 OA
BRANCH  32  33
ATOM     33  C   UNL     1      12.822 -14.530  52.476  1.00  0.00     0.208 C 
BRANCH  33  34
ATOM     34  C   UNL     1      12.987 -13.045  52.212  1.00  0.00     0.179 C 
ATOM     35  C   UNL     1      11.831 -12.261  52.845  1.00  0.00     0.179 C 
ATOM     36  O   UNL     1      12.808 -12.728  50.867  1.00  0.00    -0.347 OA
ATOM     37  C   UNL     1      11.884 -10.968  52.073  1.00  0.00     0.195 C 
ATOM     38  C   UNL     1      12.790 -11.347  50.907  1.00  0.00     0.253 C 
BRANCH  35  39
ATOM     39  O   UNL     1      12.087 -11.970  54.181  1.00  0.00    -0.387 OA
ATOM     40  H   UNL     1      11.385 -11.379  54.517  1.00  0.00     0.211 HD
ENDBRANCH  35  39
BRANCH  37  41
ATOM     41  O   UNL     1      12.535  -9.963  52.765  1.00  0.00    -0.386 OA
ATOM     42  H   UNL     1      12.318  -9.116  52.322  1.00  0.00     0.211 HD
ENDBRANCH  37  41
BRANCH  38  43
ATOM     43  N   UNL     1      12.257 -10.795  49.652  1.00  0.00    -0.285 N 
ATOM     44  C   UNL     1      11.192  -9.956  49.532  1.00  0.00     0.204 A 
ATOM     45  C   UNL     1      12.747 -11.038  48.414  1.00  0.00     0.167 A 
ATOM     46  N   UNL     1      11.010  -9.670  48.230  1.00  0.00    -0.231 NA
ATOM     47  N   UNL     1      13.767 -11.779  47.959  1.00  0.00    -0.216 NA
ATOM     48  C   UNL     1      11.953 -10.323  47.515  1.00  0.00     0.150 A 
ATOM     49  C   UNL     1      14.026 -11.833  46.641  1.00  0.00     0.226 A 
ATOM     50  C   UNL     1      12.239 -10.392  46.146  1.00  0.00     0.155 A 
ATOM     51  N   UNL     1      13.278 -11.153  45.734  1.00  0.00    -0.217 NA
BRANCH  50  52
ATOM     52  N   UNL     1      11.424  -9.657  45.220  1.00  0.00    -0.382 N 
ATOM     53  H   UNL     1      11.101  -8.687  45.395  1.00  0.00     0.158 HD
ATOM     54  H   UNL     1      11.178 -10.192  44.335  1.00  0.00     0.158 HD
ENDBRANCH  50  52
ENDBRANCH  38  43
ENDBRANCH  33  34
ENDBRANCH  32  33
ENDBRANCH  28  32
ENDBRANCH   1  28
TORSDOF 18
ENDMDL
MODEL 8
REMARK VINA RESULT:    -9.075      2.160     10.867
REMARK INTER + INTRA:         -20.117
REMARK INTER:                 -17.753
REMARK INTRA:                  -2.364
REMARK UNBOUND:                -3.350
REMARK SMILES NC(=O)C1=CN([C@@H]2O[C@H](CO[P@](=O)(O)O[P@@](=O)(O)OC[C@H]3O[C@@H](n4cnc5c(N)ncnc54)[C@H](O)[C@@H]3O)[C@@H](O)[C@H]2O)C=CC1
REMARK SMILES IDX 15 1 12 2 13 3 11 4 10 5 9 6 7 7 40 8 8 9 38 10 6 11 44 12
REMARK SMILES IDX 43 13 4 14 42 15 5 16 2 17 3 18 1 19 41 22 39 24 14 26 16 28
REMARK SMILES IDX 17 29 18 30 19 32 20 33 21 34 36 35 22 36 34 37 23 38 37 39
REMARK SMILES IDX 35 41 24 43 25 44 33 45 26 46 32 47 27 48 31 49 28 50 30 51
REMARK SMILES IDX 29 52
REMARK H PARENT 1 20 1 21 41 23 39 25 14 27 18 31 37 40 35 42 29 53 29 54
ROOT
ATOM      1  O   UNL     1      11.192 -15.547  52.839  1.00  0.00    -0.185 OA
ENDROOT
BRANCH   1   2
ATOM      2  P   UNL     1      12.545 -15.528  53.883  1.00  0.00     0.481 P 
ATOM      3  O   UNL     1      13.445 -14.392  53.502  1.00  0.00    -0.228 OA
BRANCH   2   4
ATOM      4  O   UNL     1      13.400 -16.987  53.716  1.00  0.00    -0.284 OA
BRANCH   4   5
ATOM      5  C   UNL     1      13.144 -17.737  54.840  1.00  0.00     0.208 C 
BRANCH   5   6
ATOM      6  C   UNL     1      12.359 -18.995  54.532  1.00  0.00     0.179 C 
ATOM      7  C   UNL     1      10.501 -20.118  54.678  1.00  0.00     0.250 C 
ATOM      8  C   UNL     1      10.657 -19.897  53.178  1.00  0.00     0.195 C 
ATOM      9  O   UNL     1      11.191 -19.071  55.281  1.00  0.00    -0.347 OA
ATOM     10  C   UNL     1      11.816 -18.940  53.124  1.00  0.00     0.179 C 
BRANCH   7  11
ATOM     11  N   UNL     1       9.107 -20.150  55.054  1.00  0.00    -0.326 N 
ATOM     12  C   UNL     1       6.318 -20.182  55.672  1.00  0.00     0.071 C 
ATOM     13  C   UNL     1       6.879 -19.863  54.353  1.00  0.00    -0.004 C 
ATOM     14  C   UNL     1       7.382 -20.485  56.642  1.00  0.00     0.037 C 
ATOM     15  C   UNL     1       8.152 -19.842  54.046  1.00  0.00     0.084 C 
ATOM     16  C   UNL     1       8.673 -20.474  56.369  1.00  0.00     0.098 C 
BRANCH  14  17
ATOM     17  C   UNL     1       6.987 -20.827  58.022  1.00  0.00     0.246 C 
ATOM     18  O   UNL     1       7.852 -21.117  58.903  1.00  0.00    -0.270 OA
ATOM     19  N   UNL     1       5.625 -20.847  58.432  1.00  0.00    -0.366 N 
ATOM     20  H   UNL     1       5.343 -20.247  59.236  1.00  0.00     0.159 HD
ATOM     21  H   UNL     1       4.887 -21.421  57.987  1.00  0.00     0.159 HD
ENDBRANCH  14  17
ENDBRANCH   7  11
BRANCH   8  22
ATOM     22  O   UNL     1      10.945 -21.089  52.515  1.00  0.00    -0.386 OA
ATOM     23  H   UNL     1      11.917 -21.104  52.306  1.00  0.00     0.211 HD
ENDBRANCH   8  22
BRANCH  10  24
ATOM     24  O   UNL     1      12.796 -19.350  52.216  1.00  0.00    -0.387 OA
ATOM     25  H   UNL     1      12.360 -19.368  51.317  1.00  0.00     0.211 HD
ENDBRANCH  10  24
ENDBRANCH   5   6
ENDBRANCH   4   5
ENDBRANCH   2   4
BRANCH   2  26
ATOM     26  O   UNL     1      11.940 -15.411  55.443  1.00  0.00    -0.302 OA
ATOM     27  H   UNL     1      12.704 -15.301  56.061  1.00  0.00     0.223 HD
ENDBRANCH   2  26
ENDBRANCH   1   2
BRANCH   1  28
ATOM     28  P   UNL     1       9.813 -15.252  53.779  1.00  0.00     0.481 P 
ATOM     29  O   UNL     1       8.636 -15.200  52.822  1.00  0.00    -0.228 OA
BRANCH  28  30
ATOM     30  O   UNL     1       9.559 -16.548  54.852  1.00  0.00    -0.302 OA
ATOM     31  H   UNL     1      10.330 -17.189  54.761  1.00  0.00     0.223 HD
ENDBRANCH  28  30
BRANCH  28  32
ATOM     32  O   UNL     1      10.001 -13.805  54.613  1.00  0.00    -0.284 OA
BRANCH  32  33
ATOM     33  C   UNL     1       9.596 -12.702  53.853  1.00  0.00     0.208 C 
BRANCH  33  34
ATOM     34  C   UNL     1      10.792 -11.862  53.446  1.00  0.00     0.179 C 
ATOM     35  C   UNL     1      10.327 -10.530  52.846  1.00  0.00     0.179 C 
ATOM     36  O   UNL     1      11.472 -12.411  52.360  1.00  0.00    -0.347 OA
ATOM     37  C   UNL     1      11.547 -10.105  52.071  1.00  0.00     0.195 C 
ATOM     38  C   UNL     1      12.356 -11.397  52.046  1.00  0.00     0.253 C 
BRANCH  35  39
ATOM     39  O   UNL     1      10.100  -9.580  53.837  1.00  0.00    -0.387 OA
ATOM     40  H   UNL     1       9.351  -9.874  54.391  1.00  0.00     0.211 HD
ENDBRANCH  35  39
BRANCH  37  41
ATOM     41  O   UNL     1      12.312  -9.177  52.753  1.00  0.00    -0.386 OA
ATOM     42  H   UNL     1      13.092  -8.973  52.193  1.00  0.00     0.211 HD
ENDBRANCH  37  41
BRANCH  38  43
ATOM     43  N   UNL     1      12.935 -11.605  50.710  1.00  0.00    -0.285 N 
ATOM     44  C   UNL     1      14.041 -12.345  50.420  1.00  0.00     0.204 A 
ATOM     45  C   UNL     1      12.455 -11.090  49.554  1.00  0.00     0.167 A 
ATOM     46  N   UNL     1      14.258 -12.298  49.093  1.00  0.00    -0.231 NA
ATOM     47  N   UNL     1      11.409 -10.304  49.263  1.00  0.00    -0.216 NA
ATOM     48  C   UNL     1      13.297 -11.532  48.531  1.00  0.00     0.150 A 
ATOM     49  C   UNL     1      11.170  -9.942  47.990  1.00  0.00     0.226 A 
ATOM     50  C   UNL     1      13.031 -11.144  47.212  1.00  0.00     0.155 A 
ATOM     51  N   UNL     1      11.964 -10.351  46.967  1.00  0.00    -0.217 NA
BRANCH  50  52
ATOM     52  N   UNL     1      13.895 -11.598  46.159  1.00  0.00    -0.382 N 
ATOM     53  H   UNL     1      14.925 -11.676  46.264  1.00  0.00     0.158 HD
ATOM     54  H   UNL     1      13.391 -11.848  45.258  1.00  0.00     0.158 HD
ENDBRANCH  50  52
ENDBRANCH  38  43
ENDBRANCH  33  34
ENDBRANCH  32  33
ENDBRANCH  28  32
ENDBRANCH   1  28
TORSDOF 18
ENDMDL
MODEL 9
REMARK VINA RESULT:    -8.992      2.087     11.674
REMARK INTER + INTRA:         -19.964
REMARK INTER:                 -18.553
REMARK INTRA:                  -1.411
REMARK UNBOUND:                -3.350
REMARK SMILES NC(=O)C1=CN([C@@H]2O[C@H](CO[P@](=O)(O)O[P@@](=O)(O)OC[C@H]3O[C@@H](n4cnc5c(N)ncnc54)[C@H](O)[C@@H]3O)[C@@H](O)[C@H]2O)C=CC1
REMARK SMILES IDX 15 1 12 2 13 3 11 4 10 5 9 6 7 7 40 8 8 9 38 10 6 11 44 12
REMARK SMILES IDX 43 13 4 14 42 15 5 16 2 17 3 18 1 19 41 22 39 24 14 26 16 28
REMARK SMILES IDX 17 29 18 30 19 32 20 33 21 34 36 35 22 36 34 37 23 38 37 39
REMARK SMILES IDX 35 41 24 43 25 44 33 45 26 46 32 47 27 48 31 49 28 50 30 51
REMARK SMILES IDX 29 52
REMARK H PARENT 1 20 1 21 41 23 39 25 14 27 18 31 37 40 35 42 29 53 29 54
ROOT
ATOM      1  O   UNL     1      11.535 -15.916  53.208  1.00  0.00    -0.185 OA
ENDROOT
BRANCH   1   2
ATOM      2  P   UNL     1      11.953 -17.349  54.039  1.00  0.00     0.481 P 
ATOM      3  O   UNL     1      13.288 -17.828  53.555  1.00  0.00    -0.228 OA
BRANCH   2   4
ATOM      4  O   UNL     1      10.789 -18.543  53.714  1.00  0.00    -0.284 OA
BRANCH   4   5
ATOM      5  C   UNL     1      10.998 -19.566  54.610  1.00  0.00     0.208 C 
BRANCH   5   6
ATOM      6  C   UNL     1       9.711 -20.247  55.024  1.00  0.00     0.179 C 
ATOM      7  C   UNL     1       8.530 -21.222  56.570  1.00  0.00     0.250 C 
ATOM      8  C   UNL     1       7.718 -19.973  56.248  1.00  0.00     0.195 C 
ATOM      9  O   UNL     1       9.844 -20.905  56.241  1.00  0.00    -0.347 OA
ATOM     10  C   UNL     1       8.656 -19.215  55.349  1.00  0.00     0.179 C 
BRANCH   7  11
ATOM     11  N   UNL     1       8.381 -21.592  57.958  1.00  0.00    -0.326 N 
ATOM     12  C   UNL     1       8.210 -22.373  60.700  1.00  0.00     0.071 C 
ATOM     13  C   UNL     1       9.374 -22.604  59.836  1.00  0.00    -0.004 C 
ATOM     14  C   UNL     1       7.136 -21.684  59.971  1.00  0.00     0.037 C 
ATOM     15  C   UNL     1       9.476 -22.256  58.578  1.00  0.00     0.084 C 
ATOM     16  C   UNL     1       7.202 -21.318  58.704  1.00  0.00     0.098 C 
BRANCH  14  17
ATOM     17  C   UNL     1       5.888 -21.375  60.697  1.00  0.00     0.246 C 
ATOM     18  O   UNL     1       4.791 -21.207  60.084  1.00  0.00    -0.270 OA
ATOM     19  N   UNL     1       5.854 -21.252  62.114  1.00  0.00    -0.366 N 
ATOM     20  H   UNL     1       5.198 -21.863  62.646  1.00  0.00     0.159 HD
ATOM     21  H   UNL     1       6.437 -20.594  62.660  1.00  0.00     0.159 HD
ENDBRANCH  14  17
ENDBRANCH   7  11
BRANCH   8  22
ATOM     22  O   UNL     1       6.529 -20.294  55.594  1.00  0.00    -0.386 OA
ATOM     23  H   UNL     1       6.746 -20.558  54.661  1.00  0.00     0.211 HD
ENDBRANCH   8  22
BRANCH  10  24
ATOM     24  O   UNL     1       8.030 -18.785  54.177  1.00  0.00    -0.387 OA
ATOM     25  H   UNL     1       7.484 -17.985  54.424  1.00  0.00     0.211 HD
ENDBRANCH  10  24
ENDBRANCH   5   6
ENDBRANCH   4   5
ENDBRANCH   2   4
BRANCH   2  26
ATOM     26  O   UNL     1      11.928 -16.974  55.675  1.00  0.00    -0.302 OA
ATOM     27  H   UNL     1      12.400 -16.115  55.800  1.00  0.00     0.223 HD
ENDBRANCH   2  26
ENDBRANCH   1   2
BRANCH   1  28
ATOM     28  P   UNL     1      10.355 -15.116  54.124  1.00  0.00     0.481 P 
ATOM     29  O   UNL     1       9.364 -16.172  54.578  1.00  0.00    -0.228 OA
BRANCH  28  30
ATOM     30  O   UNL     1      11.066 -14.432  55.510  1.00  0.00    -0.302 OA
ATOM     31  H   UNL     1      11.374 -13.502  55.281  1.00  0.00     0.223 HD
ENDBRANCH  28  30
BRANCH  28  32
ATOM     32  O   UNL     1       9.616 -13.937  53.181  1.00  0.00    -0.284 OA
BRANCH  32  33
ATOM     33  C   UNL     1       9.574 -12.696  53.825  1.00  0.00     0.208 C 
BRANCH  33  34
ATOM     34  C   UNL     1      10.758 -11.839  53.418  1.00  0.00     0.179 C 
ATOM     35  C   UNL     1      10.275 -10.527  52.789  1.00  0.00     0.179 C 
ATOM     36  O   UNL     1      11.464 -12.392  52.351  1.00  0.00    -0.347 OA
ATOM     37  C   UNL     1      11.497 -10.091  52.022  1.00  0.00     0.195 C 
ATOM     38  C   UNL     1      12.331 -11.366  52.030  1.00  0.00     0.253 C 
BRANCH  35  39
ATOM     39  O   UNL     1      10.016  -9.565  53.760  1.00  0.00    -0.387 OA
ATOM     40  H   UNL     1       9.082  -9.639  54.039  1.00  0.00     0.211 HD
ENDBRANCH  35  39
BRANCH  37  41
ATOM     41  O   UNL     1      12.234  -9.136  52.698  1.00  0.00    -0.386 OA
ATOM     42  H   UNL     1      12.983  -9.598  53.131  1.00  0.00     0.211 HD
ENDBRANCH  37  41
BRANCH  38  43
ATOM     43  N   UNL     1      12.931 -11.586  50.705  1.00  0.00    -0.285 N 
ATOM     44  C   UNL     1      14.036 -12.336  50.438  1.00  0.00     0.204 A 
ATOM     45  C   UNL     1      12.475 -11.072  49.538  1.00  0.00     0.167 A 
ATOM     46  N   UNL     1      14.276 -12.297  49.115  1.00  0.00    -0.231 NA
ATOM     47  N   UNL     1      11.442 -10.279  49.226  1.00  0.00    -0.216 NA
ATOM     48  C   UNL     1      13.332 -11.526  48.532  1.00  0.00     0.150 A 
ATOM     49  C   UNL     1      11.228  -9.921  47.948  1.00  0.00     0.226 A 
ATOM     50  C   UNL     1      13.092 -11.142  47.208  1.00  0.00     0.155 A 
ATOM     51  N   UNL     1      12.036 -10.341  46.940  1.00  0.00    -0.217 NA
BRANCH  50  52
ATOM     52  N   UNL     1      13.971 -11.608  46.172  1.00  0.00    -0.382 N 
ATOM     53  H   UNL     1      13.678 -12.287  45.443  1.00  0.00     0.158 HD
ATOM     54  H   UNL     1      14.950 -11.198  46.213  1.00  0.00     0.158 HD
ENDBRANCH  50  52
ENDBRANCH  38  43
ENDBRANCH  33  34
ENDBRANCH  32  33
ENDBRANCH  28  32
ENDBRANCH   1  28
TORSDOF 18
ENDMDL
