
     RDKit          3D

 24 25  0  0  0  0  0  0  0  0999 V2000
    3.1383   -1.2029    1.0465 C   0  0  0  0  0  0  0  0  0  0  0  0
    1.9284   -1.5635    0.5087 C   0  0  0  0  0  0  0  0  0  0  0  0
    1.1668   -0.6887   -0.2695 C   0  0  0  0  0  0  0  0  0  0  0  0
    1.6358    0.5851   -0.5142 C   0  0  0  0  0  0  0  0  0  0  0  0
    2.8678    0.9427    0.0375 C   0  0  0  0  0  0  0  0  0  0  0  0
    3.6035    0.0710    0.8002 C   0  0  0  0  0  0  0  0  0  0  0  0
    5.1371    0.6514    1.4329 Cl  0  0  0  0  0  0  0  0  0  0  0  0
    0.9221    1.5114   -1.2883 O   0  0  0  0  0  0  0  0  0  0  0  0
   -0.0315   -1.1197   -0.7739 O   0  0  0  0  0  0  0  0  0  0  0  0
   -1.2355   -0.5303   -0.4446 C   0  0  0  0  0  0  0  0  0  0  0  0
   -2.3733   -1.0325   -1.0416 C   0  0  0  0  0  0  0  0  0  0  0  0
   -3.6272   -0.4939   -0.7649 C   0  0  0  0  0  0  0  0  0  0  0  0
   -3.7498    0.5677    0.1259 C   0  0  0  0  0  0  0  0  0  0  0  0
   -2.6154    1.0677    0.7207 C   0  0  0  0  0  0  0  0  0  0  0  0
   -1.3814    0.5170    0.4308 C   0  0  0  0  0  0  0  0  0  0  0  0
   -5.3023    1.2836    0.5103 Cl  0  0  0  0  0  0  0  0  0  0  0  0
   -2.3150   -2.3589   -2.1685 Cl  0  0  0  0  0  0  0  0  0  0  0  0
    3.7566   -1.8471    1.6520 H   0  0  0  0  0  0  0  0  0  0  0  0
    1.5760   -2.5689    0.7115 H   0  0  0  0  0  0  0  0  0  0  0  0
    3.2261    1.9563   -0.1652 H   0  0  0  0  0  0  0  0  0  0  0  0
    1.4218    2.3083   -1.6542 H   0  0  0  0  0  0  0  0  0  0  0  0
   -4.5280   -0.8880   -1.2346 H   0  0  0  0  0  0  0  0  0  0  0  0
   -2.6879    1.8956    1.4187 H   0  0  0  0  0  0  0  0  0  0  0  0
   -0.5330    0.9364    0.9236 H   0  0  0  0  0  0  0  0  0  0  0  0
  1  2  2  0
  2  3  1  0
  3  4  2  0
  4  5  1  0
  5  6  2  0
  6  7  1  0
  4  8  1  0
  3  9  1  0
  9 10  1  0
 10 11  2  0
 11 12  1  0
 12 13  2  0
 13 14  1  0
 14 15  2  0
 13 16  1  0
 11 17  1  0
  6  1  1  0
 15 10  1  0
  1 18  1  0
  2 19  1  0
  5 20  1  0
  8 21  1  0
 12 22  1  0
 14 23  1  0
 15 24  1  0
M  END
$$$$
