REMARK SMILES Oc1cc(Cl)ccc1Oc1ccc(Cl)cc1Cl
REMARK SMILES IDX 6 1 7 2 8 3 2 4 3 5 4 6 5 7 9 8 10 9 16 10 11 11 15 12 12 13
REMARK SMILES IDX 13 14 17 15 14 16 1 17
REMARK H PARENT 1 18
ROOT
ATOM      1  C   UNL     1       3.138  -1.203   1.046  1.00  0.00     0.024 A 
ATOM      2  C   UNL     1       1.928  -1.563   0.509  1.00  0.00     0.052 A 
ATOM      3  C   UNL     1       1.167  -0.689  -0.270  1.00  0.00     0.169 A 
ATOM      4  C   UNL     1       1.636   0.585  -0.514  1.00  0.00     0.159 A 
ATOM      5  C   UNL     1       2.868   0.943   0.037  1.00  0.00     0.070 A 
ATOM      6  C   UNL     1       3.603   0.071   0.800  1.00  0.00     0.045 A 
ATOM      7  Cl  UNL     1       5.137   0.651   1.433  1.00  0.00    -0.084 Cl
ENDROOT
BRANCH   3   8
ATOM      8  O   UNL     1      -0.032  -1.120  -0.774  1.00  0.00    -0.452 OA
BRANCH   8   9
ATOM      9  C   UNL     1      -1.236  -0.530  -0.445  1.00  0.00     0.146 A 
ATOM     10  C   UNL     1      -2.373  -1.032  -1.042  1.00  0.00     0.085 A 
ATOM     11  C   UNL     1      -1.381   0.517   0.431  1.00  0.00     0.050 A 
ATOM     12  C   UNL     1      -3.627  -0.494  -0.765  1.00  0.00     0.045 A 
ATOM     13  C   UNL     1      -2.615   1.068   0.721  1.00  0.00     0.024 A 
ATOM     14  C   UNL     1      -3.750   0.568   0.126  1.00  0.00     0.042 A 
ATOM     15  Cl  UNL     1      -2.315  -2.359  -2.168  1.00  0.00    -0.080 Cl
ATOM     16  Cl  UNL     1      -5.302   1.284   0.510  1.00  0.00    -0.084 Cl
ENDBRANCH   8   9
ENDBRANCH   3   8
BRANCH   4  17
ATOM     17  O   UNL     1       0.922   1.511  -1.288  1.00  0.00    -0.504 OA
ATOM     18  H   UNL     1       1.422   2.308  -1.654  1.00  0.00     0.293 HD
ENDBRANCH   4  17
TORSDOF 3
