
     RDKit          3D

 73 77  0  0  0  0  0  0  0  0999 V2000
   -9.1395   -2.2953    0.7898 C   0  0  0  0  0  0  0  0  0  0  0  0
   -7.7360   -2.4807    1.1803 C   0  0  0  0  0  0  0  0  0  0  0  0
   -6.7842   -1.5893    1.0672 C   0  0  0  0  0  0  0  0  0  0  0  0
   -7.0992   -0.3144    0.5213 N   0  0  0  0  0  0  0  0  0  0  0  0
   -8.4291   -0.0263    0.1094 C   0  0  0  0  0  0  0  0  0  0  0  0
   -9.3630   -0.9502    0.2386 C   0  0  0  0  0  0  0  0  0  0  0  0
  -10.7259   -0.5978   -0.2048 C   0  0  0  0  0  0  0  0  0  0  0  0
  -11.6826   -1.4251   -0.1166 O   0  0  0  0  0  0  0  0  0  0  0  0
  -11.0333    0.6796   -0.7500 N   0  0  0  0  0  0  0  0  0  0  0  0
   -6.0241    0.6443    0.4116 C   0  0  1  0  0  0  0  0  0  0  0  0
   -5.4260    0.9519    1.7803 C   0  0  1  0  0  0  0  0  0  0  0  0
   -3.9554    1.0060    1.4721 C   0  0  1  0  0  0  0  0  0  0  0  0
   -3.9325    1.0463   -0.0380 C   0  0  2  0  0  0  0  0  0  0  0  0
   -4.9653    0.1720   -0.3573 O   0  0  0  0  0  0  0  0  0  0  0  0
   -2.5980    0.5519   -0.5554 C   0  0  0  0  0  0  0  0  0  0  0  0
   -2.5844    0.4073   -1.9232 O   0  0  0  0  0  0  0  0  0  0  0  0
   -1.0364   -0.1495   -2.3503 P   0  0  0  0  0  0  0  0  0  0  0  0
   -0.1154    1.0266   -2.4721 O   0  0  0  0  0  0  0  0  0  0  0  0
   -1.1394   -1.0684   -3.7497 O   0  0  0  0  0  0  0  0  0  0  0  0
   -0.4568   -1.1915   -1.1269 O   0  0  0  0  0  0  0  0  0  0  0  0
    1.1405   -1.6020   -1.5146 P   0  0  0  0  0  0  0  0  0  0  0  0
    1.4533   -2.8908   -0.7763 O   0  0  0  0  0  0  0  0  0  0  0  0
    1.2675   -1.9101   -3.1837 O   0  0  0  0  0  0  0  0  0  0  0  0
    2.1691   -0.3557   -1.0508 O   0  0  0  0  0  0  0  0  0  0  0  0
    3.2971   -0.8275   -0.3708 C   0  0  0  0  0  0  0  0  0  0  0  0
    4.2009    0.3223    0.0328 C   0  0  2  0  0  0  0  0  0  0  0  0
    4.8419    0.9555   -1.2067 C   0  0  2  0  0  0  0  0  0  0  0  0
    6.0248    1.6690   -0.6053 C   0  0  2  0  0  0  0  0  0  0  0  0
    6.0834    1.0424    0.7833 C   0  0  1  0  0  0  0  0  0  0  0  0
    5.3353   -0.1175    0.7136 O   0  0  0  0  0  0  0  0  0  0  0  0
    7.4766    0.7432    1.1453 N   0  0  0  0  0  0  0  0  0  0  0  0
    8.1522    1.2376    2.2192 C   0  0  0  0  0  0  0  0  0  0  0  0
    9.4002    0.7358    2.2152 N   0  0  0  0  0  0  0  0  0  0  0  0
    9.5294   -0.0784    1.1443 C   0  0  0  0  0  0  0  0  0  0  0  0
   10.5860   -0.8520    0.6511 C   0  0  0  0  0  0  0  0  0  0  0  0
   10.3958   -1.5771   -0.4741 N   0  0  0  0  0  0  0  0  0  0  0  0
    9.1952   -1.5480   -1.1076 C   0  0  0  0  0  0  0  0  0  0  0  0
    8.1677   -0.8112   -0.6497 N   0  0  0  0  0  0  0  0  0  0  0  0
    8.3100   -0.0770    0.4615 C   0  0  0  0  0  0  0  0  0  0  0  0
   11.8398   -0.8553    1.3505 N   0  0  0  0  0  0  0  0  0  0  0  0
    5.7910    3.0192   -0.4163 O   0  0  0  0  0  0  0  0  0  0  0  0
    4.0087    1.9159   -1.7733 O   0  0  0  0  0  0  0  0  0  0  0  0
   -3.3505    2.1543    1.9905 O   0  0  0  0  0  0  0  0  0  0  0  0
   -5.8913    2.1686    2.2764 O   0  0  0  0  0  0  0  0  0  0  0  0
   -9.7999   -2.4093    1.6916 H   0  0  0  0  0  0  0  0  0  0  0  0
   -9.4654   -3.0957    0.0812 H   0  0  0  0  0  0  0  0  0  0  0  0
   -7.4588   -3.4452    1.6022 H   0  0  0  0  0  0  0  0  0  0  0  0
   -5.7635   -1.8104    1.3834 H   0  0  0  0  0  0  0  0  0  0  0  0
   -8.6355    0.9674   -0.3073 H   0  0  0  0  0  0  0  0  0  0  0  0
  -11.7814    1.2434   -0.2943 H   0  0  0  0  0  0  0  0  0  0  0  0
  -10.5636    1.0944   -1.5747 H   0  0  0  0  0  0  0  0  0  0  0  0
   -6.3932    1.5845   -0.0343 H   0  0  0  0  0  0  0  0  0  0  0  0
   -5.6540    0.1195    2.5012 H   0  0  0  0  0  0  0  0  0  0  0  0
   -3.4530    0.0762    1.8200 H   0  0  0  0  0  0  0  0  0  0  0  0
   -4.1351    2.0840   -0.3731 H   0  0  0  0  0  0  0  0  0  0  0  0
   -1.8231    1.2747   -0.2277 H   0  0  0  0  0  0  0  0  0  0  0  0
   -2.3465   -0.4030   -0.0504 H   0  0  0  0  0  0  0  0  0  0  0  0
   -2.0721   -1.3804   -3.8441 H   0  0  0  0  0  0  0  0  0  0  0  0
    1.0436   -2.8777   -3.3437 H   0  0  0  0  0  0  0  0  0  0  0  0
    3.0560   -1.4064    0.5309 H   0  0  0  0  0  0  0  0  0  0  0  0
    3.8243   -1.4781   -1.1003 H   0  0  0  0  0  0  0  0  0  0  0  0
    3.6429    1.1118    0.5485 H   0  0  0  0  0  0  0  0  0  0  0  0
    5.1264    0.1721   -1.9353 H   0  0  0  0  0  0  0  0  0  0  0  0
    6.9644    1.4432   -1.1439 H   0  0  0  0  0  0  0  0  0  0  0  0
    5.6590    1.6801    1.5632 H   0  0  0  0  0  0  0  0  0  0  0  0
    7.7874    1.9190    2.9712 H   0  0  0  0  0  0  0  0  0  0  0  0
    9.0172   -2.1286   -2.0229 H   0  0  0  0  0  0  0  0  0  0  0  0
   12.0345   -1.4703    2.1636 H   0  0  0  0  0  0  0  0  0  0  0  0
   12.5568   -0.1721    0.9653 H   0  0  0  0  0  0  0  0  0  0  0  0
    6.5780    3.3912    0.0356 H   0  0  0  0  0  0  0  0  0  0  0  0
    4.5581    2.5778   -2.2371 H   0  0  0  0  0  0  0  0  0  0  0  0
   -2.5663    1.8443    2.5256 H   0  0  0  0  0  0  0  0  0  0  0  0
   -5.1349    2.6350    2.7216 H   0  0  0  0  0  0  0  0  0  0  0  0
  1  2  1  0
  2  3  2  0
  3  4  1  0
  4  5  1  0
  5  6  2  0
  6  7  1  0
  7  8  2  0
  7  9  1  0
  4 10  1  0
 10 11  1  0
 11 12  1  0
 12 13  1  0
 13 14  1  0
 13 15  1  0
 15 16  1  0
 16 17  1  0
 17 18  2  0
 17 19  1  0
 17 20  1  0
 20 21  1  0
 21 22  2  0
 21 23  1  0
 21 24  1  0
 24 25  1  0
 25 26  1  0
 26 27  1  0
 27 28  1  0
 28 29  1  0
 29 30  1  0
 29 31  1  0
 31 32  1  0
 32 33  2  0
 33 34  1  0
 34 35  2  0
 35 36  1  0
 36 37  2  0
 37 38  1  0
 38 39  2  0
 35 40  1  0
 28 41  1  0
 27 42  1  0
 12 43  1  0
 11 44  1  0
  6  1  1  0
 14 10  1  0
 30 26  1  0
 39 31  1  0
 39 34  1  0
  1 45  1  0
  1 46  1  0
  2 47  1  0
  3 48  1  0
  5 49  1  0
  9 50  1  0
  9 51  1  0
 10 52  1  6
 11 53  1  1
 12 54  1  1
 13 55  1  1
 15 56  1  0
 15 57  1  0
 19 58  1  0
 23 59  1  0
 25 60  1  0
 25 61  1  0
 26 62  1  1
 27 63  1  6
 28 64  1  6
 29 65  1  1
 32 66  1  0
 37 67  1  0
 40 68  1  0
 40 69  1  0
 41 70  1  0
 42 71  1  0
 43 72  1  0
 44 73  1  0
M  END
$$$$
