REMARK SMILES NC(=O)C1=CN([C@@H]2O[C@H](CO[P@](=O)(O)O[P@@](=O)(O)OC[C@H]3O[C@@H](n4cnc5c(N)ncnc54)[C@H](O)[C@@H]3O)[C@@H](O)[C@H]2O)C=CC1
REMARK SMILES IDX 15 1 12 2 13 3 11 4 10 5 9 6 7 7 40 8 8 9 38 10 6 11 44 12
REMARK SMILES IDX 43 13 4 14 42 15 5 16 2 17 3 18 1 19 41 22 39 24 14 26 16 28
REMARK SMILES IDX 17 29 18 30 19 32 20 33 21 34 36 35 22 36 34 37 23 38 37 39
REMARK SMILES IDX 35 41 24 43 25 44 33 45 26 46 32 47 27 48 31 49 28 50 30 51
REMARK SMILES IDX 29 52
REMARK H PARENT 1 20 1 21 41 23 39 25 14 27 18 31 37 40 35 42 29 53 29 54
ROOT
ATOM      1  O   UNL     1      -0.457  -1.192  -1.127  1.00  0.00    -0.185 OA
ENDROOT
BRANCH   1   2
ATOM      2  P   UNL     1      -1.036  -0.149  -2.350  1.00  0.00     0.481 P 
ATOM      3  O   UNL     1      -0.115   1.027  -2.472  1.00  0.00    -0.228 OA
BRANCH   2   4
ATOM      4  O   UNL     1      -2.584   0.407  -1.923  1.00  0.00    -0.284 OA
BRANCH   4   5
ATOM      5  C   UNL     1      -2.598   0.552  -0.555  1.00  0.00     0.208 C 
BRANCH   5   6
ATOM      6  C   UNL     1      -3.933   1.046  -0.038  1.00  0.00     0.179 C 
ATOM      7  C   UNL     1      -6.024   0.644   0.412  1.00  0.00     0.250 C 
ATOM      8  C   UNL     1      -5.426   0.952   1.780  1.00  0.00     0.195 C 
ATOM      9  O   UNL     1      -4.965   0.172  -0.357  1.00  0.00    -0.347 OA
ATOM     10  C   UNL     1      -3.955   1.006   1.472  1.00  0.00     0.179 C 
BRANCH   7  11
ATOM     11  N   UNL     1      -7.099  -0.314   0.521  1.00  0.00    -0.326 N 
ATOM     12  C   UNL     1      -9.139  -2.295   0.790  1.00  0.00     0.071 C 
ATOM     13  C   UNL     1      -7.736  -2.481   1.180  1.00  0.00    -0.004 C 
ATOM     14  C   UNL     1      -9.363  -0.950   0.239  1.00  0.00     0.037 C 
ATOM     15  C   UNL     1      -6.784  -1.589   1.067  1.00  0.00     0.084 C 
ATOM     16  C   UNL     1      -8.429  -0.026   0.109  1.00  0.00     0.098 C 
BRANCH  14  17
ATOM     17  C   UNL     1     -10.726  -0.598  -0.205  1.00  0.00     0.246 C 
ATOM     18  O   UNL     1     -11.683  -1.425  -0.117  1.00  0.00    -0.270 OA
ATOM     19  N   UNL     1     -11.033   0.680  -0.750  1.00  0.00    -0.366 N 
ATOM     20  H   UNL     1     -11.781   1.243  -0.294  1.00  0.00     0.159 HD
ATOM     21  H   UNL     1     -10.564   1.094  -1.575  1.00  0.00     0.159 HD
ENDBRANCH  14  17
ENDBRANCH   7  11
BRANCH   8  22
ATOM     22  O   UNL     1      -5.891   2.169   2.276  1.00  0.00    -0.386 OA
ATOM     23  H   UNL     1      -5.135   2.635   2.722  1.00  0.00     0.211 HD
ENDBRANCH   8  22
BRANCH  10  24
ATOM     24  O   UNL     1      -3.350   2.154   1.990  1.00  0.00    -0.387 OA
ATOM     25  H   UNL     1      -2.566   1.844   2.526  1.00  0.00     0.211 HD
ENDBRANCH  10  24
ENDBRANCH   5   6
ENDBRANCH   4   5
ENDBRANCH   2   4
BRANCH   2  26
ATOM     26  O   UNL     1      -1.139  -1.068  -3.750  1.00  0.00    -0.302 OA
ATOM     27  H   UNL     1      -2.072  -1.380  -3.844  1.00  0.00     0.223 HD
ENDBRANCH   2  26
ENDBRANCH   1   2
BRANCH   1  28
ATOM     28  P   UNL     1       1.141  -1.602  -1.515  1.00  0.00     0.481 P 
ATOM     29  O   UNL     1       1.453  -2.891  -0.776  1.00  0.00    -0.228 OA
BRANCH  28  30
ATOM     30  O   UNL     1       1.268  -1.910  -3.184  1.00  0.00    -0.302 OA
ATOM     31  H   UNL     1       1.044  -2.878  -3.344  1.00  0.00     0.223 HD
ENDBRANCH  28  30
BRANCH  28  32
ATOM     32  O   UNL     1       2.169  -0.356  -1.051  1.00  0.00    -0.284 OA
BRANCH  32  33
ATOM     33  C   UNL     1       3.297  -0.828  -0.371  1.00  0.00     0.208 C 
BRANCH  33  34
ATOM     34  C   UNL     1       4.201   0.322   0.033  1.00  0.00     0.179 C 
ATOM     35  C   UNL     1       4.842   0.956  -1.207  1.00  0.00     0.179 C 
ATOM     36  O   UNL     1       5.335  -0.117   0.714  1.00  0.00    -0.347 OA
ATOM     37  C   UNL     1       6.025   1.669  -0.605  1.00  0.00     0.195 C 
ATOM     38  C   UNL     1       6.083   1.042   0.783  1.00  0.00     0.253 C 
BRANCH  35  39
ATOM     39  O   UNL     1       4.009   1.916  -1.773  1.00  0.00    -0.387 OA
ATOM     40  H   UNL     1       4.558   2.578  -2.237  1.00  0.00     0.211 HD
ENDBRANCH  35  39
BRANCH  37  41
ATOM     41  O   UNL     1       5.791   3.019  -0.416  1.00  0.00    -0.386 OA
ATOM     42  H   UNL     1       6.578   3.391   0.036  1.00  0.00     0.211 HD
ENDBRANCH  37  41
BRANCH  38  43
ATOM     43  N   UNL     1       7.477   0.743   1.145  1.00  0.00    -0.285 N 
ATOM     44  C   UNL     1       8.152   1.238   2.219  1.00  0.00     0.204 A 
ATOM     45  C   UNL     1       8.310  -0.077   0.462  1.00  0.00     0.167 A 
ATOM     46  N   UNL     1       9.400   0.736   2.215  1.00  0.00    -0.231 NA
ATOM     47  N   UNL     1       8.168  -0.811  -0.650  1.00  0.00    -0.216 NA
ATOM     48  C   UNL     1       9.529  -0.078   1.144  1.00  0.00     0.150 A 
ATOM     49  C   UNL     1       9.195  -1.548  -1.108  1.00  0.00     0.226 A 
ATOM     50  C   UNL     1      10.586  -0.852   0.651  1.00  0.00     0.155 A 
ATOM     51  N   UNL     1      10.396  -1.577  -0.474  1.00  0.00    -0.217 NA
BRANCH  50  52
ATOM     52  N   UNL     1      11.840  -0.855   1.351  1.00  0.00    -0.382 N 
ATOM     53  H   UNL     1      12.034  -1.470   2.164  1.00  0.00     0.158 HD
ATOM     54  H   UNL     1      12.557  -0.172   0.965  1.00  0.00     0.158 HD
ENDBRANCH  50  52
ENDBRANCH  38  43
ENDBRANCH  33  34
ENDBRANCH  32  33
ENDBRANCH  28  32
ENDBRANCH   1  28
TORSDOF 18
