MODEL 1
REMARK VINA RESULT:    -6.425      0.000      0.000
REMARK INTER + INTRA:          -7.617
REMARK INTER:                  -7.364
REMARK INTRA:                  -0.252
REMARK UNBOUND:                -0.252
REMARK SMILES Oc1cc(Cl)ccc1Oc1ccc(Cl)cc1Cl
REMARK SMILES IDX 6 1 7 2 8 3 2 4 3 5 4 6 5 7 9 8 10 9 16 10 11 11 15 12 12 13
REMARK SMILES IDX 13 14 17 15 14 16 1 17
REMARK H PARENT 1 18
ROOT
ATOM      1  C   UNL     1     -15.685   1.998  59.462  1.00  0.00     0.024 A 
ATOM      2  C   UNL     1     -16.562   0.950  59.346  1.00  0.00     0.052 A 
ATOM      3  C   UNL     1     -16.987   0.206  60.448  1.00  0.00     0.169 A 
ATOM      4  C   UNL     1     -16.515   0.525  61.704  1.00  0.00     0.159 A 
ATOM      5  C   UNL     1     -15.622   1.593  61.813  1.00  0.00     0.070 A 
ATOM      6  C   UNL     1     -15.215   2.314  60.719  1.00  0.00     0.045 A 
ATOM      7  Cl  UNL     1     -14.087   3.633  60.998  1.00  0.00    -0.084 Cl
ENDROOT
BRANCH   3   8
ATOM      8  O   UNL     1     -17.867  -0.827  60.254  1.00  0.00    -0.452 OA
BRANCH   8   9
ATOM      9  C   UNL     1     -19.213  -0.628  60.024  1.00  0.00     0.146 A 
ATOM     10  C   UNL     1     -20.098  -1.143  60.948  1.00  0.00     0.085 A 
ATOM     11  C   UNL     1     -19.732   0.043  58.944  1.00  0.00     0.050 A 
ATOM     12  C   UNL     1     -21.473  -0.987  60.790  1.00  0.00     0.045 A 
ATOM     13  C   UNL     1     -21.092   0.209  58.766  1.00  0.00     0.024 A 
ATOM     14  C   UNL     1     -21.976  -0.304  59.687  1.00  0.00     0.042 A 
ATOM     15  Cl  UNL     1     -19.559  -2.011  62.358  1.00  0.00    -0.080 Cl
ATOM     16  Cl  UNL     1     -23.695  -0.079  59.439  1.00  0.00    -0.084 Cl
ENDBRANCH   8   9
ENDBRANCH   3   8
BRANCH   4  17
ATOM     17  O   UNL     1     -16.903  -0.180  62.853  1.00  0.00    -0.504 OA
ATOM     18  H   UNL     1     -16.974  -1.185  62.789  1.00  0.00     0.293 HD
ENDBRANCH   4  17
TORSDOF 3
ENDMDL
MODEL 2
REMARK VINA RESULT:    -6.002      1.180      5.950
REMARK INTER + INTRA:          -7.131
REMARK INTER:                  -6.654
REMARK INTRA:                  -0.477
REMARK UNBOUND:                -0.252
REMARK SMILES Oc1cc(Cl)ccc1Oc1ccc(Cl)cc1Cl
REMARK SMILES IDX 6 1 7 2 8 3 2 4 3 5 4 6 5 7 9 8 10 9 16 10 11 11 15 12 12 13
REMARK SMILES IDX 13 14 17 15 14 16 1 17
REMARK H PARENT 1 18
ROOT
ATOM      1  C   UNL     1     -21.558   0.264  60.972  1.00  0.00     0.024 A 
ATOM      2  C   UNL     1     -20.213   0.009  61.075  1.00  0.00     0.052 A 
ATOM      3  C   UNL     1     -19.481  -0.571  60.037  1.00  0.00     0.169 A 
ATOM      4  C   UNL     1     -20.121  -0.906  58.862  1.00  0.00     0.159 A 
ATOM      5  C   UNL     1     -21.489  -0.644  58.766  1.00  0.00     0.070 A 
ATOM      6  C   UNL     1     -22.193  -0.073  59.796  1.00  0.00     0.045 A 
ATOM      7  Cl  UNL     1     -23.910   0.201  59.542  1.00  0.00    -0.084 Cl
ENDROOT
BRANCH   3   8
ATOM      8  O   UNL     1     -18.141  -0.794  60.213  1.00  0.00    -0.452 OA
BRANCH   8   9
ATOM      9  C   UNL     1     -17.216   0.229  60.277  1.00  0.00     0.146 A 
ATOM     10  C   UNL     1     -16.710   0.550  61.519  1.00  0.00     0.085 A 
ATOM     11  C   UNL     1     -16.765   0.946  59.197  1.00  0.00     0.050 A 
ATOM     12  C   UNL     1     -15.774   1.569  61.672  1.00  0.00     0.045 A 
ATOM     13  C   UNL     1     -15.836   1.962  59.324  1.00  0.00     0.024 A 
ATOM     14  C   UNL     1     -15.331   2.283  60.563  1.00  0.00     0.042 A 
ATOM     15  Cl  UNL     1     -17.205  -0.290  62.962  1.00  0.00    -0.080 Cl
ATOM     16  Cl  UNL     1     -14.156   3.575  60.697  1.00  0.00    -0.084 Cl
ENDBRANCH   8   9
ENDBRANCH   3   8
BRANCH   4  17
ATOM     17  O   UNL     1     -19.444  -1.491  57.781  1.00  0.00    -0.504 OA
ATOM     18  H   UNL     1     -19.650  -2.453  57.558  1.00  0.00     0.293 HD
ENDBRANCH   4  17
TORSDOF 3
ENDMDL
MODEL 3
REMARK VINA RESULT:    -5.812      1.806      6.435
REMARK INTER + INTRA:          -6.913
REMARK INTER:                  -7.556
REMARK INTRA:                   0.643
REMARK UNBOUND:                -0.252
REMARK SMILES Oc1cc(Cl)ccc1Oc1ccc(Cl)cc1Cl
REMARK SMILES IDX 6 1 7 2 8 3 2 4 3 5 4 6 5 7 9 8 10 9 16 10 11 11 15 12 12 13
REMARK SMILES IDX 13 14 17 15 14 16 1 17
REMARK H PARENT 1 18
ROOT
ATOM      1  C   UNL     1     -19.642  -1.449  61.903  1.00  0.00     0.024 A 
ATOM      2  C   UNL     1     -18.618  -0.767  61.296  1.00  0.00     0.052 A 
ATOM      3  C   UNL     1     -18.673  -0.374  59.958  1.00  0.00     0.169 A 
ATOM      4  C   UNL     1     -19.790  -0.677  59.208  1.00  0.00     0.159 A 
ATOM      5  C   UNL     1     -20.827  -1.371  59.834  1.00  0.00     0.070 A 
ATOM      6  C   UNL     1     -20.756  -1.750  61.150  1.00  0.00     0.045 A 
ATOM      7  Cl  UNL     1     -22.132  -2.620  61.813  1.00  0.00    -0.084 Cl
ENDROOT
BRANCH   3   8
ATOM      8  O   UNL     1     -17.612   0.306  59.420  1.00  0.00    -0.452 OA
BRANCH   8   9
ATOM      9  C   UNL     1     -16.500   0.660  60.158  1.00  0.00     0.146 A 
ATOM     10  C   UNL     1     -15.760   1.736  59.715  1.00  0.00     0.085 A 
ATOM     11  C   UNL     1     -16.081   0.020  61.298  1.00  0.00     0.050 A 
ATOM     12  C   UNL     1     -14.625   2.158  60.402  1.00  0.00     0.045 A 
ATOM     13  C   UNL     1     -14.957   0.420  61.996  1.00  0.00     0.024 A 
ATOM     14  C   UNL     1     -14.218   1.493  61.555  1.00  0.00     0.042 A 
ATOM     15  Cl  UNL     1     -16.195   2.628  58.284  1.00  0.00    -0.080 Cl
ATOM     16  Cl  UNL     1     -12.798   1.981  62.457  1.00  0.00    -0.084 Cl
ENDBRANCH   8   9
ENDBRANCH   3   8
BRANCH   4  17
ATOM     17  O   UNL     1     -19.910  -0.310  57.859  1.00  0.00    -0.504 OA
ATOM     18  H   UNL     1     -20.838  -0.216  57.475  1.00  0.00     0.293 HD
ENDBRANCH   4  17
TORSDOF 3
ENDMDL
MODEL 4
REMARK VINA RESULT:    -5.732      1.732      2.819
REMARK INTER + INTRA:          -6.822
REMARK INTER:                  -7.575
REMARK INTRA:                   0.752
REMARK UNBOUND:                -0.252
REMARK SMILES Oc1cc(Cl)ccc1Oc1ccc(Cl)cc1Cl
REMARK SMILES IDX 6 1 7 2 8 3 2 4 3 5 4 6 5 7 9 8 10 9 16 10 11 11 15 12 12 13
REMARK SMILES IDX 13 14 17 15 14 16 1 17
REMARK H PARENT 1 18
ROOT
ATOM      1  C   UNL     1     -15.447   0.582  62.073  1.00  0.00     0.024 A 
ATOM      2  C   UNL     1     -16.589   0.168  61.435  1.00  0.00     0.052 A 
ATOM      3  C   UNL     1     -16.909   0.577  60.138  1.00  0.00     0.169 A 
ATOM      4  C   UNL     1     -16.058   1.429  59.466  1.00  0.00     0.159 A 
ATOM      5  C   UNL     1     -14.899   1.846  60.124  1.00  0.00     0.070 A 
ATOM      6  C   UNL     1     -14.599   1.433  61.398  1.00  0.00     0.045 A 
ATOM      7  Cl  UNL     1     -13.108   2.034  62.109  1.00  0.00    -0.084 Cl
ENDROOT
BRANCH   3   8
ATOM      8  O   UNL     1     -18.067   0.121  59.564  1.00  0.00    -0.452 OA
BRANCH   8   9
ATOM      9  C   UNL     1     -19.025  -0.579  60.270  1.00  0.00     0.146 A 
ATOM     10  C   UNL     1     -20.272  -0.705  59.694  1.00  0.00     0.085 A 
ATOM     11  C   UNL     1     -18.826  -1.155  61.500  1.00  0.00     0.050 A 
ATOM     12  C   UNL     1     -21.295  -1.395  60.339  1.00  0.00     0.045 A 
ATOM     13  C   UNL     1     -19.826  -1.844  62.160  1.00  0.00     0.024 A 
ATOM     14  C   UNL     1     -21.070  -1.971  61.586  1.00  0.00     0.042 A 
ATOM     15  Cl  UNL     1     -20.643  -0.018  58.137  1.00  0.00    -0.080 Cl
ATOM     16  Cl  UNL     1     -22.321  -2.849  62.443  1.00  0.00    -0.084 Cl
ENDBRANCH   8   9
ENDBRANCH   3   8
BRANCH   4  17
ATOM     17  O   UNL     1     -16.320   1.877  58.164  1.00  0.00    -0.504 OA
ATOM     18  H   UNL     1     -17.231   1.688  57.772  1.00  0.00     0.293 HD
ENDBRANCH   4  17
TORSDOF 3
ENDMDL
MODEL 5
REMARK VINA RESULT:    -5.548      1.786      2.076
REMARK INTER + INTRA:          -6.611
REMARK INTER:                  -6.553
REMARK INTRA:                  -0.058
REMARK UNBOUND:                -0.252
REMARK SMILES Oc1cc(Cl)ccc1Oc1ccc(Cl)cc1Cl
REMARK SMILES IDX 6 1 7 2 8 3 2 4 3 5 4 6 5 7 9 8 10 9 16 10 11 11 15 12 12 13
REMARK SMILES IDX 13 14 17 15 14 16 1 17
REMARK H PARENT 1 18
ROOT
ATOM      1  C   UNL     1     -16.389   1.458  60.027  1.00  0.00     0.024 A 
ATOM      2  C   UNL     1     -17.381   0.718  59.437  1.00  0.00     0.052 A 
ATOM      3  C   UNL     1     -18.097  -0.260  60.131  1.00  0.00     0.169 A 
ATOM      4  C   UNL     1     -17.803  -0.502  61.457  1.00  0.00     0.159 A 
ATOM      5  C   UNL     1     -16.791   0.256  62.049  1.00  0.00     0.070 A 
ATOM      6  C   UNL     1     -16.098   1.213  61.352  1.00  0.00     0.045 A 
ATOM      7  Cl  UNL     1     -14.848   2.094  62.219  1.00  0.00    -0.084 Cl
ENDROOT
BRANCH   3   8
ATOM      8  O   UNL     1     -19.076  -0.959  59.475  1.00  0.00    -0.452 OA
BRANCH   8   9
ATOM      9  C   UNL     1     -20.422  -0.720  59.669  1.00  0.00     0.146 A 
ATOM     10  C   UNL     1     -21.307  -1.361  58.828  1.00  0.00     0.085 A 
ATOM     11  C   UNL     1     -20.938   0.107  60.635  1.00  0.00     0.050 A 
ATOM     12  C   UNL     1     -22.681  -1.174  58.956  1.00  0.00     0.045 A 
ATOM     13  C   UNL     1     -22.298   0.308  60.780  1.00  0.00     0.024 A 
ATOM     14  C   UNL     1     -23.183  -0.330  59.942  1.00  0.00     0.042 A 
ATOM     15  Cl  UNL     1     -20.771  -2.435  57.567  1.00  0.00    -0.080 Cl
ATOM     16  Cl  UNL     1     -24.901  -0.058  60.147  1.00  0.00    -0.084 Cl
ENDBRANCH   8   9
ENDBRANCH   3   8
BRANCH   4  17
ATOM     17  O   UNL     1     -18.483  -1.469  62.211  1.00  0.00    -0.504 OA
ATOM     18  H   UNL     1     -19.261  -1.166  62.779  1.00  0.00     0.293 HD
ENDBRANCH   4  17
TORSDOF 3
ENDMDL
MODEL 6
REMARK VINA RESULT:    -5.511      2.624      4.158
REMARK INTER + INTRA:          -6.569
REMARK INTER:                  -6.304
REMARK INTRA:                  -0.264
REMARK UNBOUND:                -0.252
REMARK SMILES Oc1cc(Cl)ccc1Oc1ccc(Cl)cc1Cl
REMARK SMILES IDX 6 1 7 2 8 3 2 4 3 5 4 6 5 7 9 8 10 9 16 10 11 11 15 12 12 13
REMARK SMILES IDX 13 14 17 15 14 16 1 17
REMARK H PARENT 1 18
ROOT
ATOM      1  C   UNL     1     -18.306  -0.715  61.841  1.00  0.00     0.024 A 
ATOM      2  C   UNL     1     -19.537  -1.224  61.515  1.00  0.00     0.052 A 
ATOM      3  C   UNL     1     -20.088  -1.086  60.239  1.00  0.00     0.169 A 
ATOM      4  C   UNL     1     -19.381  -0.414  59.264  1.00  0.00     0.159 A 
ATOM      5  C   UNL     1     -18.129   0.101  59.605  1.00  0.00     0.070 A 
ATOM      6  C   UNL     1     -17.602  -0.044  60.864  1.00  0.00     0.045 A 
ATOM      7  Cl  UNL     1     -16.016   0.654  61.158  1.00  0.00    -0.084 Cl
ENDROOT
BRANCH   3   8
ATOM      8  O   UNL     1     -21.324  -1.623  59.987  1.00  0.00    -0.452 OA
BRANCH   8   9
ATOM      9  C   UNL     1     -22.430  -1.350  60.767  1.00  0.00     0.146 A 
ATOM     10  C   UNL     1     -23.334  -0.426  60.286  1.00  0.00     0.085 A 
ATOM     11  C   UNL     1     -22.693  -1.932  61.982  1.00  0.00     0.050 A 
ATOM     12  C   UNL     1     -24.475  -0.094  61.011  1.00  0.00     0.045 A 
ATOM     13  C   UNL     1     -23.819  -1.618  62.720  1.00  0.00     0.024 A 
ATOM     14  C   UNL     1     -24.721  -0.696  62.241  1.00  0.00     0.042 A 
ATOM     15  Cl  UNL     1     -23.109   0.375  58.757  1.00  0.00    -0.080 Cl
ATOM     16  Cl  UNL     1     -26.140  -0.315  63.195  1.00  0.00    -0.084 Cl
ENDBRANCH   8   9
ENDBRANCH   3   8
BRANCH   4  17
ATOM     17  O   UNL     1     -19.877  -0.241  57.964  1.00  0.00    -0.504 OA
ATOM     18  H   UNL     1     -20.777  -0.641  57.743  1.00  0.00     0.293 HD
ENDBRANCH   4  17
TORSDOF 3
ENDMDL
MODEL 7
REMARK VINA RESULT:    -5.463      2.435      3.564
REMARK INTER + INTRA:          -6.514
REMARK INTER:                  -6.041
REMARK INTRA:                  -0.473
REMARK UNBOUND:                -0.252
REMARK SMILES Oc1cc(Cl)ccc1Oc1ccc(Cl)cc1Cl
REMARK SMILES IDX 6 1 7 2 8 3 2 4 3 5 4 6 5 7 9 8 10 9 16 10 11 11 15 12 12 13
REMARK SMILES IDX 13 14 17 15 14 16 1 17
REMARK H PARENT 1 18
ROOT
ATOM      1  C   UNL     1     -17.843  -0.414  61.914  1.00  0.00     0.024 A 
ATOM      2  C   UNL     1     -19.040  -1.059  61.733  1.00  0.00     0.052 A 
ATOM      3  C   UNL     1     -19.702  -1.076  60.504  1.00  0.00     0.169 A 
ATOM      4  C   UNL     1     -19.144  -0.422  59.425  1.00  0.00     0.159 A 
ATOM      5  C   UNL     1     -17.925   0.232  59.618  1.00  0.00     0.070 A 
ATOM      6  C   UNL     1     -17.289   0.238  60.834  1.00  0.00     0.045 A 
ATOM      7  Cl  UNL     1     -15.761   1.101  60.938  1.00  0.00    -0.084 Cl
ENDROOT
BRANCH   3   8
ATOM      8  O   UNL     1     -20.894  -1.743  60.399  1.00  0.00    -0.452 OA
BRANCH   8   9
ATOM      9  C   UNL     1     -22.047  -1.316  61.028  1.00  0.00     0.146 A 
ATOM     10  C   UNL     1     -22.450  -2.006  62.151  1.00  0.00     0.085 A 
ATOM     11  C   UNL     1     -22.817  -0.257  60.616  1.00  0.00     0.050 A 
ATOM     12  C   UNL     1     -23.601  -1.641  62.844  1.00  0.00     0.045 A 
ATOM     13  C   UNL     1     -23.963   0.124  61.287  1.00  0.00     0.024 A 
ATOM     14  C   UNL     1     -24.367  -0.564  62.408  1.00  0.00     0.042 A 
ATOM     15  Cl  UNL     1     -21.554  -3.365  62.770  1.00  0.00    -0.080 Cl
ATOM     16  Cl  UNL     1     -25.824  -0.061  63.240  1.00  0.00    -0.084 Cl
ENDBRANCH   8   9
ENDBRANCH   3   8
BRANCH   4  17
ATOM     17  O   UNL     1     -19.755  -0.401  58.163  1.00  0.00    -0.504 OA
ATOM     18  H   UNL     1     -20.626  -0.898  58.051  1.00  0.00     0.293 HD
ENDBRANCH   4  17
TORSDOF 3
ENDMDL
MODEL 8
REMARK VINA RESULT:    -5.220      2.810      3.769
REMARK INTER + INTRA:          -6.236
REMARK INTER:                  -6.036
REMARK INTRA:                  -0.200
REMARK UNBOUND:                -0.252
REMARK SMILES Oc1cc(Cl)ccc1Oc1ccc(Cl)cc1Cl
REMARK SMILES IDX 6 1 7 2 8 3 2 4 3 5 4 6 5 7 9 8 10 9 16 10 11 11 15 12 12 13
REMARK SMILES IDX 13 14 17 15 14 16 1 17
REMARK H PARENT 1 18
ROOT
ATOM      1  C   UNL     1     -17.982  -0.182  61.957  1.00  0.00     0.024 A 
ATOM      2  C   UNL     1     -19.306  -0.484  61.761  1.00  0.00     0.052 A 
ATOM      3  C   UNL     1     -19.900  -0.450  60.498  1.00  0.00     0.169 A 
ATOM      4  C   UNL     1     -19.141  -0.101  59.400  1.00  0.00     0.159 A 
ATOM      5  C   UNL     1     -17.795   0.205  59.609  1.00  0.00     0.070 A 
ATOM      6  C   UNL     1     -17.227   0.167  60.858  1.00  0.00     0.045 A 
ATOM      7  Cl  UNL     1     -15.521   0.576  60.979  1.00  0.00    -0.084 Cl
ENDROOT
BRANCH   3   8
ATOM      8  O   UNL     1     -21.228  -0.765  60.380  1.00  0.00    -0.452 OA
BRANCH   8   9
ATOM      9  C   UNL     1     -21.667  -2.011  59.976  1.00  0.00     0.146 A 
ATOM     10  C   UNL     1     -22.006  -2.914  60.961  1.00  0.00     0.085 A 
ATOM     11  C   UNL     1     -21.790  -2.411  58.669  1.00  0.00     0.050 A 
ATOM     12  C   UNL     1     -22.457  -4.191  60.639  1.00  0.00     0.045 A 
ATOM     13  C   UNL     1     -22.236  -3.674  58.325  1.00  0.00     0.024 A 
ATOM     14  C   UNL     1     -22.574  -4.576  59.306  1.00  0.00     0.042 A 
ATOM     15  Cl  UNL     1     -21.893  -2.520  62.653  1.00  0.00    -0.080 Cl
ATOM     16  Cl  UNL     1     -23.135  -6.170  58.845  1.00  0.00    -0.084 Cl
ENDBRANCH   8   9
ENDBRANCH   3   8
BRANCH   4  17
ATOM     17  O   UNL     1     -19.676  -0.048  58.105  1.00  0.00    -0.504 OA
ATOM     18  H   UNL     1     -19.958  -0.916  57.674  1.00  0.00     0.293 HD
ENDBRANCH   4  17
TORSDOF 3
ENDMDL
MODEL 9
REMARK VINA RESULT:    -4.988      3.347      4.868
REMARK INTER + INTRA:          -5.970
REMARK INTER:                  -5.514
REMARK INTRA:                  -0.455
REMARK UNBOUND:                -0.252
REMARK SMILES Oc1cc(Cl)ccc1Oc1ccc(Cl)cc1Cl
REMARK SMILES IDX 6 1 7 2 8 3 2 4 3 5 4 6 5 7 9 8 10 9 16 10 11 11 15 12 12 13
REMARK SMILES IDX 13 14 17 15 14 16 1 17
REMARK H PARENT 1 18
ROOT
ATOM      1  C   UNL     1     -19.845  -0.237  59.507  1.00  0.00     0.024 A 
ATOM      2  C   UNL     1     -21.068  -0.786  59.799  1.00  0.00     0.052 A 
ATOM      3  C   UNL     1     -21.285  -1.564  60.938  1.00  0.00     0.169 A 
ATOM      4  C   UNL     1     -20.240  -1.800  61.807  1.00  0.00     0.159 A 
ATOM      5  C   UNL     1     -18.998  -1.239  61.501  1.00  0.00     0.070 A 
ATOM      6  C   UNL     1     -18.803  -0.476  60.377  1.00  0.00     0.045 A 
ATOM      7  Cl  UNL     1     -17.190   0.170  60.112  1.00  0.00    -0.084 Cl
ENDROOT
BRANCH   3   8
ATOM      8  O   UNL     1     -22.535  -2.078  61.165  1.00  0.00    -0.452 OA
BRANCH   8   9
ATOM      9  C   UNL     1     -23.248  -2.761  60.200  1.00  0.00     0.146 A 
ATOM     10  C   UNL     1     -24.476  -2.249  59.838  1.00  0.00     0.085 A 
ATOM     11  C   UNL     1     -22.823  -3.909  59.578  1.00  0.00     0.050 A 
ATOM     12  C   UNL     1     -25.259  -2.877  58.872  1.00  0.00     0.045 A 
ATOM     13  C   UNL     1     -23.583  -4.550  58.618  1.00  0.00     0.024 A 
ATOM     14  C   UNL     1     -24.808  -4.041  58.256  1.00  0.00     0.042 A 
ATOM     15  Cl  UNL     1     -25.120  -0.799  60.555  1.00  0.00    -0.080 Cl
ATOM     16  Cl  UNL     1     -25.752  -4.872  57.037  1.00  0.00    -0.084 Cl
ENDBRANCH   8   9
ENDBRANCH   3   8
BRANCH   4  17
ATOM     17  O   UNL     1     -20.390  -2.573  62.967  1.00  0.00    -0.504 OA
ATOM     18  H   UNL     1     -21.256  -2.495  63.479  1.00  0.00     0.293 HD
ENDBRANCH   4  17
TORSDOF 3
ENDMDL
