MODEL 1
REMARK VINA RESULT:    -6.997      0.000      0.000
REMARK INTER + INTRA:         -10.439
REMARK INTER:                  -9.656
REMARK INTRA:                  -0.783
REMARK UNBOUND:                -0.783
REMARK SMILES Cc1c(N)cccc1Cn1ccc(OCCc2cccs2)cc1=O
REMARK SMILES IDX 10 1 11 2 12 3 13 4 22 5 23 6 24 7 9 8 8 9 2 10 3 11 7 12
REMARK SMILES IDX 5 13 6 14 1 15 4 16 14 19 15 20 16 21 17 22 18 23 21 24
REMARK SMILES IDX 19 25 20 26
REMARK H PARENT 4 17 4 18
ROOT
ATOM      1  N   UNL     1     -21.803  -1.459  59.199  1.00  0.00    -0.311 N 
ATOM      2  C   UNL     1     -21.933  -1.340  60.538  1.00  0.00     0.093 A 
ATOM      3  C   UNL     1     -20.903  -0.824  61.329  1.00  0.00     0.064 A 
ATOM      4  C   UNL     1     -19.733  -0.430  60.722  1.00  0.00     0.126 A 
ATOM      5  C   UNL     1     -19.587  -0.548  59.340  1.00  0.00     0.118 A 
ATOM      6  C   UNL     1     -20.640  -1.067  58.604  1.00  0.00     0.254 A 
ATOM      7  O   UNL     1     -20.505  -1.173  57.350  1.00  0.00    -0.269 OA
ENDROOT
BRANCH   1   8
ATOM      8  C   UNL     1     -22.828  -1.981  58.340  1.00  0.00     0.161 C 
BRANCH   8   9
ATOM      9  C   UNL     1     -23.088  -3.421  58.502  1.00  0.00    -0.023 A 
ATOM     10  C   UNL     1     -24.321  -3.843  58.940  1.00  0.00    -0.023 A 
ATOM     11  C   UNL     1     -24.605  -5.184  59.103  1.00  0.00     0.035 A 
ATOM     12  C   UNL     1     -22.122  -4.389  58.224  1.00  0.00     0.006 A 
ATOM     13  C   UNL     1     -23.656  -6.168  58.832  1.00  0.00     0.026 A 
ATOM     14  C   UNL     1     -22.401  -5.743  58.386  1.00  0.00     0.002 A 
ATOM     15  C   UNL     1     -25.387  -2.827  59.249  1.00  0.00     0.047 C 
BRANCH  11  16
ATOM     16  N   UNL     1     -25.917  -5.552  59.565  1.00  0.00    -0.399 N 
ATOM     17  H   UNL     1     -26.766  -5.426  58.981  1.00  0.00     0.156 HD
ATOM     18  H   UNL     1     -25.968  -5.958  60.531  1.00  0.00     0.156 HD
ENDBRANCH  11  16
ENDBRANCH   8   9
ENDBRANCH   1   8
BRANCH   4  19
ATOM     19  O   UNL     1     -18.650   0.094  61.405  1.00  0.00    -0.493 OA
BRANCH  19  20
ATOM     20  C   UNL     1     -17.357   0.185  60.836  1.00  0.00     0.235 C 
BRANCH  20  21
ATOM     21  C   UNL     1     -16.334   0.504  61.904  1.00  0.00     0.088 C 
BRANCH  21  22
ATOM     22  C   UNL     1     -15.367   1.455  61.324  1.00  0.00     0.008 A 
ATOM     23  C   UNL     1     -14.118   1.850  61.805  1.00  0.00     0.015 A 
ATOM     24  S   UNL     1     -15.586   2.371  59.786  1.00  0.00    -0.149 S 
ATOM     25  C   UNL     1     -13.427   2.733  61.089  1.00  0.00     0.012 A 
ATOM     26  C   UNL     1     -13.952   3.215  59.932  1.00  0.00     0.065 A 
ENDBRANCH  21  22
ENDBRANCH  20  21
ENDBRANCH  19  20
ENDBRANCH   4  19
TORSDOF 7
ENDMDL
MODEL 2
REMARK VINA RESULT:    -6.905      1.187      1.920
REMARK INTER + INTRA:         -10.312
REMARK INTER:                  -9.739
REMARK INTRA:                  -0.572
REMARK UNBOUND:                -0.783
REMARK SMILES Cc1c(N)cccc1Cn1ccc(OCCc2cccs2)cc1=O
REMARK SMILES IDX 10 1 11 2 12 3 13 4 22 5 23 6 24 7 9 8 8 9 2 10 3 11 7 12
REMARK SMILES IDX 5 13 6 14 1 15 4 16 14 19 15 20 16 21 17 22 18 23 21 24
REMARK SMILES IDX 19 25 20 26
REMARK H PARENT 4 17 4 18
ROOT
ATOM      1  N   UNL     1     -21.463  -1.160  59.441  1.00  0.00    -0.311 N 
ATOM      2  C   UNL     1     -21.532  -1.532  60.737  1.00  0.00     0.093 A 
ATOM      3  C   UNL     1     -20.431  -1.415  61.589  1.00  0.00     0.064 A 
ATOM      4  C   UNL     1     -19.254  -0.908  61.089  1.00  0.00     0.126 A 
ATOM      5  C   UNL     1     -19.171  -0.521  59.752  1.00  0.00     0.118 A 
ATOM      6  C   UNL     1     -20.293  -0.659  58.950  1.00  0.00     0.254 A 
ATOM      7  O   UNL     1     -20.215  -0.307  57.738  1.00  0.00    -0.269 OA
ENDROOT
BRANCH   1   8
ATOM      8  C   UNL     1     -22.562  -1.259  58.522  1.00  0.00     0.161 C 
BRANCH   8   9
ATOM      9  C   UNL     1     -23.447  -2.413  58.746  1.00  0.00    -0.023 A 
ATOM     10  C   UNL     1     -23.021  -3.673  58.397  1.00  0.00    -0.023 A 
ATOM     11  C   UNL     1     -23.820  -4.782  58.592  1.00  0.00     0.035 A 
ATOM     12  C   UNL     1     -24.719  -2.281  59.307  1.00  0.00     0.006 A 
ATOM     13  C   UNL     1     -25.093  -4.674  59.149  1.00  0.00     0.026 A 
ATOM     14  C   UNL     1     -25.530  -3.394  59.506  1.00  0.00     0.002 A 
ATOM     15  C   UNL     1     -21.656  -3.854  57.791  1.00  0.00     0.047 C 
BRANCH  11  16
ATOM     16  N   UNL     1     -23.308  -6.069  58.202  1.00  0.00    -0.399 N 
ATOM     17  H   UNL     1     -22.717  -6.199  57.358  1.00  0.00     0.156 HD
ATOM     18  H   UNL     1     -23.567  -6.874  58.822  1.00  0.00     0.156 HD
ENDBRANCH  11  16
ENDBRANCH   8   9
ENDBRANCH   1   8
BRANCH   4  19
ATOM     19  O   UNL     1     -18.103  -0.748  61.841  1.00  0.00    -0.493 OA
BRANCH  19  20
ATOM     20  C   UNL     1     -17.410   0.483  61.925  1.00  0.00     0.235 C 
BRANCH  20  21
ATOM     21  C   UNL     1     -15.916   0.249  61.873  1.00  0.00     0.088 C 
BRANCH  21  22
ATOM     22  C   UNL     1     -15.318   1.350  61.093  1.00  0.00     0.008 A 
ATOM     23  C   UNL     1     -15.771   1.947  59.916  1.00  0.00     0.015 A 
ATOM     24  S   UNL     1     -13.793   2.221  61.503  1.00  0.00    -0.149 S 
ATOM     25  C   UNL     1     -15.045   2.936  59.402  1.00  0.00     0.012 A 
ATOM     26  C   UNL     1     -13.904   3.326  60.030  1.00  0.00     0.065 A 
ENDBRANCH  21  22
ENDBRANCH  20  21
ENDBRANCH  19  20
ENDBRANCH   4  19
TORSDOF 7
ENDMDL
MODEL 3
REMARK VINA RESULT:    -6.829      1.410      2.462
REMARK INTER + INTRA:         -10.206
REMARK INTER:                  -9.563
REMARK INTRA:                  -0.643
REMARK UNBOUND:                -0.783
REMARK SMILES Cc1c(N)cccc1Cn1ccc(OCCc2cccs2)cc1=O
REMARK SMILES IDX 10 1 11 2 12 3 13 4 22 5 23 6 24 7 9 8 8 9 2 10 3 11 7 12
REMARK SMILES IDX 5 13 6 14 1 15 4 16 14 19 15 20 16 21 17 22 18 23 21 24
REMARK SMILES IDX 19 25 20 26
REMARK H PARENT 4 17 4 18
ROOT
ATOM      1  N   UNL     1     -21.780  -0.486  59.283  1.00  0.00    -0.311 N 
ATOM      2  C   UNL     1     -21.570  -0.140  60.571  1.00  0.00     0.093 A 
ATOM      3  C   UNL     1     -20.291  -0.158  61.132  1.00  0.00     0.064 A 
ATOM      4  C   UNL     1     -19.226  -0.538  60.348  1.00  0.00     0.126 A 
ATOM      5  C   UNL     1     -19.430  -0.897  59.016  1.00  0.00     0.118 A 
ATOM      6  C   UNL     1     -20.720  -0.863  58.511  1.00  0.00     0.254 A 
ATOM      7  O   UNL     1     -20.903  -1.190  57.302  1.00  0.00    -0.269 OA
ENDROOT
BRANCH   1   8
ATOM      8  C   UNL     1     -23.071  -0.486  58.655  1.00  0.00     0.161 C 
BRANCH   8   9
ATOM      9  C   UNL     1     -24.144  -1.091  59.461  1.00  0.00    -0.023 A 
ATOM     10  C   UNL     1     -24.401  -2.438  59.347  1.00  0.00    -0.023 A 
ATOM     11  C   UNL     1     -25.398  -3.043  60.086  1.00  0.00     0.035 A 
ATOM     12  C   UNL     1     -24.923  -0.346  60.347  1.00  0.00     0.006 A 
ATOM     13  C   UNL     1     -26.188  -2.319  60.977  1.00  0.00     0.026 A 
ATOM     14  C   UNL     1     -25.930  -0.950  61.094  1.00  0.00     0.002 A 
ATOM     15  C   UNL     1     -23.580  -3.273  58.403  1.00  0.00     0.047 C 
BRANCH  11  16
ATOM     16  N   UNL     1     -25.609  -4.457  59.916  1.00  0.00    -0.399 N 
ATOM     17  H   UNL     1     -25.043  -5.027  59.258  1.00  0.00     0.156 HD
ATOM     18  H   UNL     1     -26.371  -4.881  60.498  1.00  0.00     0.156 HD
ENDBRANCH  11  16
ENDBRANCH   8   9
ENDBRANCH   1   8
BRANCH   4  19
ATOM     19  O   UNL     1     -17.919  -0.592  60.799  1.00  0.00    -0.493 OA
BRANCH  19  20
ATOM     20  C   UNL     1     -17.414   0.287  61.787  1.00  0.00     0.235 C 
BRANCH  20  21
ATOM     21  C   UNL     1     -15.911   0.146  61.897  1.00  0.00     0.088 C 
BRANCH  21  22
ATOM     22  C   UNL     1     -15.303   1.287  61.186  1.00  0.00     0.008 A 
ATOM     23  C   UNL     1     -15.771   1.988  60.074  1.00  0.00     0.015 A 
ATOM     24  S   UNL     1     -13.740   2.080  61.613  1.00  0.00    -0.149 S 
ATOM     25  C   UNL     1     -15.031   2.993  59.615  1.00  0.00     0.012 A 
ATOM     26  C   UNL     1     -13.861   3.299  60.235  1.00  0.00     0.065 A 
ENDBRANCH  21  22
ENDBRANCH  20  21
ENDBRANCH  19  20
ENDBRANCH   4  19
TORSDOF 7
ENDMDL
MODEL 4
REMARK VINA RESULT:    -6.269      1.449      1.984
REMARK INTER + INTRA:          -9.433
REMARK INTER:                  -8.970
REMARK INTRA:                  -0.463
REMARK UNBOUND:                -0.783
REMARK SMILES Cc1c(N)cccc1Cn1ccc(OCCc2cccs2)cc1=O
REMARK SMILES IDX 10 1 11 2 12 3 13 4 22 5 23 6 24 7 9 8 8 9 2 10 3 11 7 12
REMARK SMILES IDX 5 13 6 14 1 15 4 16 14 19 15 20 16 21 17 22 18 23 21 24
REMARK SMILES IDX 19 25 20 26
REMARK H PARENT 4 17 4 18
ROOT
ATOM      1  N   UNL     1     -22.305  -0.847  59.477  1.00  0.00    -0.311 N 
ATOM      2  C   UNL     1     -21.490  -1.299  58.498  1.00  0.00     0.093 A 
ATOM      3  C   UNL     1     -20.100  -1.213  58.609  1.00  0.00     0.064 A 
ATOM      4  C   UNL     1     -19.556  -0.656  59.742  1.00  0.00     0.126 A 
ATOM      5  C   UNL     1     -20.387  -0.186  60.759  1.00  0.00     0.118 A 
ATOM      6  C   UNL     1     -21.759  -0.295  60.598  1.00  0.00     0.254 A 
ATOM      7  O   UNL     1     -22.510   0.132  61.523  1.00  0.00    -0.269 OA
ENDROOT
BRANCH   1   8
ATOM      8  C   UNL     1     -23.737  -0.910  59.416  1.00  0.00     0.161 C 
BRANCH   8   9
ATOM      9  C   UNL     1     -24.290  -2.273  59.360  1.00  0.00    -0.023 A 
ATOM     10  C   UNL     1     -24.951  -2.783  60.453  1.00  0.00    -0.023 A 
ATOM     11  C   UNL     1     -25.484  -4.056  60.440  1.00  0.00     0.035 A 
ATOM     12  C   UNL     1     -24.168  -3.082  58.229  1.00  0.00     0.006 A 
ATOM     13  C   UNL     1     -25.376  -4.881  59.321  1.00  0.00     0.026 A 
ATOM     14  C   UNL     1     -24.703  -4.366  58.209  1.00  0.00     0.002 A 
ATOM     15  C   UNL     1     -25.102  -1.940  61.689  1.00  0.00     0.047 C 
BRANCH  11  16
ATOM     16  N   UNL     1     -26.164  -4.523  61.619  1.00  0.00    -0.399 N 
ATOM     17  H   UNL     1     -26.233  -5.532  61.857  1.00  0.00     0.156 HD
ATOM     18  H   UNL     1     -26.589  -3.783  62.229  1.00  0.00     0.156 HD
ENDBRANCH  11  16
ENDBRANCH   8   9
ENDBRANCH   1   8
BRANCH   4  19
ATOM     19  O   UNL     1     -18.196  -0.521  59.957  1.00  0.00    -0.493 OA
BRANCH  19  20
ATOM     20  C   UNL     1     -17.644   0.529  60.730  1.00  0.00     0.235 C 
BRANCH  20  21
ATOM     21  C   UNL     1     -16.313   0.108  61.314  1.00  0.00     0.088 C 
BRANCH  21  22
ATOM     22  C   UNL     1     -15.352   1.199  61.065  1.00  0.00     0.008 A 
ATOM     23  C   UNL     1     -14.103   1.428  61.644  1.00  0.00     0.015 A 
ATOM     24  S   UNL     1     -15.580   2.555  59.897  1.00  0.00    -0.149 S 
ATOM     25  C   UNL     1     -13.419   2.496  61.245  1.00  0.00     0.012 A 
ATOM     26  C   UNL     1     -13.950   3.317  60.301  1.00  0.00     0.065 A 
ENDBRANCH  21  22
ENDBRANCH  20  21
ENDBRANCH  19  20
ENDBRANCH   4  19
TORSDOF 7
ENDMDL
MODEL 5
REMARK VINA RESULT:    -6.186      2.198      3.111
REMARK INTER + INTRA:          -9.319
REMARK INTER:                  -8.498
REMARK INTRA:                  -0.822
REMARK UNBOUND:                -0.783
REMARK SMILES Cc1c(N)cccc1Cn1ccc(OCCc2cccs2)cc1=O
REMARK SMILES IDX 10 1 11 2 12 3 13 4 22 5 23 6 24 7 9 8 8 9 2 10 3 11 7 12
REMARK SMILES IDX 5 13 6 14 1 15 4 16 14 19 15 20 16 21 17 22 18 23 21 24
REMARK SMILES IDX 19 25 20 26
REMARK H PARENT 4 17 4 18
ROOT
ATOM      1  N   UNL     1     -21.854  -1.834  60.030  1.00  0.00    -0.311 N 
ATOM      2  C   UNL     1     -21.071  -1.769  61.129  1.00  0.00     0.093 A 
ATOM      3  C   UNL     1     -19.832  -1.125  61.106  1.00  0.00     0.064 A 
ATOM      4  C   UNL     1     -19.406  -0.545  59.933  1.00  0.00     0.126 A 
ATOM      5  C   UNL     1     -20.205  -0.606  58.792  1.00  0.00     0.118 A 
ATOM      6  C   UNL     1     -21.425  -1.258  58.870  1.00  0.00     0.254 A 
ATOM      7  O   UNL     1     -22.148  -1.311  57.833  1.00  0.00    -0.269 OA
ENDROOT
BRANCH   1   8
ATOM      8  C   UNL     1     -23.134  -2.482  59.998  1.00  0.00     0.161 C 
BRANCH   8   9
ATOM      9  C   UNL     1     -24.184  -1.805  60.777  1.00  0.00    -0.023 A 
ATOM     10  C   UNL     1     -24.600  -2.347  61.970  1.00  0.00    -0.023 A 
ATOM     11  C   UNL     1     -25.581  -1.742  62.730  1.00  0.00     0.035 A 
ATOM     12  C   UNL     1     -24.783  -0.618  60.349  1.00  0.00     0.006 A 
ATOM     13  C   UNL     1     -26.193  -0.558  62.324  1.00  0.00     0.026 A 
ATOM     14  C   UNL     1     -25.772  -0.003  61.111  1.00  0.00     0.002 A 
ATOM     15  C   UNL     1     -23.977  -3.625  62.463  1.00  0.00     0.047 C 
BRANCH  11  16
ATOM     16  N   UNL     1     -25.966  -2.367  63.969  1.00  0.00    -0.399 N 
ATOM     17  H   UNL     1     -25.351  -3.040  64.465  1.00  0.00     0.156 HD
ATOM     18  H   UNL     1     -26.909  -2.102  64.344  1.00  0.00     0.156 HD
ENDBRANCH  11  16
ENDBRANCH   8   9
ENDBRANCH   1   8
BRANCH   4  19
ATOM     19  O   UNL     1     -18.199   0.117  59.796  1.00  0.00    -0.493 OA
BRANCH  19  20
ATOM     20  C   UNL     1     -17.068  -0.181  60.593  1.00  0.00     0.235 C 
BRANCH  20  21
ATOM     21  C   UNL     1     -16.829   0.925  61.599  1.00  0.00     0.088 C 
BRANCH  21  22
ATOM     22  C   UNL     1     -15.648   1.688  61.150  1.00  0.00     0.008 A 
ATOM     23  C   UNL     1     -14.359   1.717  61.682  1.00  0.00     0.015 A 
ATOM     24  S   UNL     1     -15.597   2.813  59.741  1.00  0.00    -0.149 S 
ATOM     25  C   UNL     1     -13.459   2.495  61.088  1.00  0.00     0.012 A 
ATOM     26  C   UNL     1     -13.819   3.226  60.001  1.00  0.00     0.065 A 
ENDBRANCH  21  22
ENDBRANCH  20  21
ENDBRANCH  19  20
ENDBRANCH   4  19
TORSDOF 7
ENDMDL
MODEL 6
REMARK VINA RESULT:    -5.980      1.537      2.089
REMARK INTER + INTRA:          -9.034
REMARK INTER:                  -8.211
REMARK INTRA:                  -0.823
REMARK UNBOUND:                -0.783
REMARK SMILES Cc1c(N)cccc1Cn1ccc(OCCc2cccs2)cc1=O
REMARK SMILES IDX 10 1 11 2 12 3 13 4 22 5 23 6 24 7 9 8 8 9 2 10 3 11 7 12
REMARK SMILES IDX 5 13 6 14 1 15 4 16 14 19 15 20 16 21 17 22 18 23 21 24
REMARK SMILES IDX 19 25 20 26
REMARK H PARENT 4 17 4 18
ROOT
ATOM      1  N   UNL     1     -22.196  -2.283  61.172  1.00  0.00    -0.311 N 
ATOM      2  C   UNL     1     -22.124  -1.310  60.238  1.00  0.00     0.093 A 
ATOM      3  C   UNL     1     -21.028  -0.446  60.168  1.00  0.00     0.064 A 
ATOM      4  C   UNL     1     -20.004  -0.596  61.074  1.00  0.00     0.126 A 
ATOM      5  C   UNL     1     -20.068  -1.597  62.043  1.00  0.00     0.118 A 
ATOM      6  C   UNL     1     -21.178  -2.426  62.068  1.00  0.00     0.254 A 
ATOM      7  O   UNL     1     -21.233  -3.334  62.948  1.00  0.00    -0.269 OA
ENDROOT
BRANCH   1   8
ATOM      8  C   UNL     1     -23.296  -3.198  61.289  1.00  0.00     0.161 C 
BRANCH   8   9
ATOM      9  C   UNL     1     -23.386  -4.191  60.206  1.00  0.00    -0.023 A 
ATOM     10  C   UNL     1     -24.399  -4.096  59.281  1.00  0.00    -0.023 A 
ATOM     11  C   UNL     1     -24.518  -5.007  58.250  1.00  0.00     0.035 A 
ATOM     12  C   UNL     1     -22.474  -5.239  60.078  1.00  0.00     0.006 A 
ATOM     13  C   UNL     1     -23.618  -6.062  58.102  1.00  0.00     0.026 A 
ATOM     14  C   UNL     1     -22.587  -6.161  59.041  1.00  0.00     0.002 A 
ATOM     15  C   UNL     1     -25.401  -2.979  59.388  1.00  0.00     0.047 C 
BRANCH  11  16
ATOM     16  N   UNL     1     -25.603  -4.846  57.319  1.00  0.00    -0.399 N 
ATOM     17  H   UNL     1     -25.952  -5.628  56.733  1.00  0.00     0.156 HD
ATOM     18  H   UNL     1     -26.024  -3.887  57.264  1.00  0.00     0.156 HD
ENDBRANCH  11  16
ENDBRANCH   8   9
ENDBRANCH   1   8
BRANCH   4  19
ATOM     19  O   UNL     1     -18.874   0.201  61.097  1.00  0.00    -0.493 OA
BRANCH  19  20
ATOM     20  C   UNL     1     -17.574  -0.307  60.863  1.00  0.00     0.235 C 
BRANCH  20  21
ATOM     21  C   UNL     1     -16.896   0.472  59.756  1.00  0.00     0.088 C 
BRANCH  21  22
ATOM     22  C   UNL     1     -15.736   1.166  60.346  1.00  0.00     0.008 A 
ATOM     23  C   UNL     1     -14.758   0.676  61.213  1.00  0.00     0.015 A 
ATOM     24  S   UNL     1     -15.291   2.892  60.068  1.00  0.00    -0.149 S 
ATOM     25  C   UNL     1     -13.802   1.512  61.607  1.00  0.00     0.012 A 
ATOM     26  C   UNL     1     -13.808   2.796  61.161  1.00  0.00     0.065 A 
ENDBRANCH  21  22
ENDBRANCH  20  21
ENDBRANCH  19  20
ENDBRANCH   4  19
TORSDOF 7
ENDMDL
MODEL 7
REMARK VINA RESULT:    -5.490      4.020      8.438
REMARK INTER + INTRA:          -8.359
REMARK INTER:                  -8.436
REMARK INTRA:                   0.078
REMARK UNBOUND:                -0.783
REMARK SMILES Cc1c(N)cccc1Cn1ccc(OCCc2cccs2)cc1=O
REMARK SMILES IDX 10 1 11 2 12 3 13 4 22 5 23 6 24 7 9 8 8 9 2 10 3 11 7 12
REMARK SMILES IDX 5 13 6 14 1 15 4 16 14 19 15 20 16 21 17 22 18 23 21 24
REMARK SMILES IDX 19 25 20 26
REMARK H PARENT 4 17 4 18
ROOT
ATOM      1  N   UNL     1     -18.745  -0.453  60.118  1.00  0.00    -0.311 N 
ATOM      2  C   UNL     1     -18.759  -1.033  61.338  1.00  0.00     0.093 A 
ATOM      3  C   UNL     1     -19.937  -1.542  61.890  1.00  0.00     0.064 A 
ATOM      4  C   UNL     1     -21.105  -1.447  61.170  1.00  0.00     0.126 A 
ATOM      5  C   UNL     1     -21.102  -0.851  59.909  1.00  0.00     0.118 A 
ATOM      6  C   UNL     1     -19.907  -0.362  59.408  1.00  0.00     0.254 A 
ATOM      7  O   UNL     1     -19.908   0.179  58.264  1.00  0.00    -0.269 OA
ENDROOT
BRANCH   1   8
ATOM      8  C   UNL     1     -17.565   0.086  59.503  1.00  0.00     0.161 C 
BRANCH   8   9
ATOM      9  C   UNL     1     -16.677   0.820  60.419  1.00  0.00    -0.023 A 
ATOM     10  C   UNL     1     -15.882   1.829  59.929  1.00  0.00    -0.023 A 
ATOM     11  C   UNL     1     -15.037   2.543  60.755  1.00  0.00     0.035 A 
ATOM     12  C   UNL     1     -16.608   0.531  61.783  1.00  0.00     0.006 A 
ATOM     13  C   UNL     1     -14.951   2.272  62.120  1.00  0.00     0.026 A 
ATOM     14  C   UNL     1     -15.758   1.246  62.621  1.00  0.00     0.002 A 
ATOM     15  C   UNL     1     -15.931   2.169  58.464  1.00  0.00     0.047 C 
BRANCH  11  16
ATOM     16  N   UNL     1     -14.234   3.586  60.173  1.00  0.00    -0.399 N 
ATOM     17  H   UNL     1     -13.309   3.397  59.740  1.00  0.00     0.156 HD
ATOM     18  H   UNL     1     -14.637   4.553  60.211  1.00  0.00     0.156 HD
ENDBRANCH  11  16
ENDBRANCH   8   9
ENDBRANCH   1   8
BRANCH   4  19
ATOM     19  O   UNL     1     -22.326  -1.917  61.618  1.00  0.00    -0.493 OA
BRANCH  19  20
ATOM     20  C   UNL     1     -22.458  -3.108  62.372  1.00  0.00     0.235 C 
BRANCH  20  21
ATOM     21  C   UNL     1     -22.700  -2.783  63.830  1.00  0.00     0.088 C 
BRANCH  21  22
ATOM     22  C   UNL     1     -21.702  -3.526  64.623  1.00  0.00     0.008 A 
ATOM     23  C   UNL     1     -20.575  -4.228  64.194  1.00  0.00     0.015 A 
ATOM     24  S   UNL     1     -21.709  -3.706  66.418  1.00  0.00    -0.149 S 
ATOM     25  C   UNL     1     -19.823  -4.820  65.117  1.00  0.00     0.012 A 
ATOM     26  C   UNL     1     -20.172  -4.725  66.427  1.00  0.00     0.065 A 
ENDBRANCH  21  22
ENDBRANCH  20  21
ENDBRANCH  19  20
ENDBRANCH   4  19
TORSDOF 7
ENDMDL
MODEL 8
REMARK VINA RESULT:    -5.297      2.357      2.758
REMARK INTER + INTRA:          -8.092
REMARK INTER:                  -7.429
REMARK INTRA:                  -0.663
REMARK UNBOUND:                -0.783
REMARK SMILES Cc1c(N)cccc1Cn1ccc(OCCc2cccs2)cc1=O
REMARK SMILES IDX 10 1 11 2 12 3 13 4 22 5 23 6 24 7 9 8 8 9 2 10 3 11 7 12
REMARK SMILES IDX 5 13 6 14 1 15 4 16 14 19 15 20 16 21 17 22 18 23 21 24
REMARK SMILES IDX 19 25 20 26
REMARK H PARENT 4 17 4 18
ROOT
ATOM      1  N   UNL     1     -22.132  -1.395  60.332  1.00  0.00    -0.311 N 
ATOM      2  C   UNL     1     -21.379  -1.487  61.450  1.00  0.00     0.093 A 
ATOM      3  C   UNL     1     -19.993  -1.320  61.411  1.00  0.00     0.064 A 
ATOM      4  C   UNL     1     -19.388  -1.057  60.204  1.00  0.00     0.126 A 
ATOM      5  C   UNL     1     -20.155  -0.960  59.043  1.00  0.00     0.118 A 
ATOM      6  C   UNL     1     -21.526  -1.135  59.138  1.00  0.00     0.254 A 
ATOM      7  O   UNL     1     -22.220  -1.047  58.083  1.00  0.00    -0.269 OA
ENDROOT
BRANCH   1   8
ATOM      8  C   UNL     1     -23.558  -1.557  60.314  1.00  0.00     0.161 C 
BRANCH   8   9
ATOM      9  C   UNL     1     -24.069  -2.600  61.218  1.00  0.00    -0.023 A 
ATOM     10  C   UNL     1     -24.715  -2.238  62.376  1.00  0.00    -0.023 A 
ATOM     11  C   UNL     1     -25.209  -3.187  63.250  1.00  0.00     0.035 A 
ATOM     12  C   UNL     1     -23.921  -3.962  60.945  1.00  0.00     0.006 A 
ATOM     13  C   UNL     1     -25.074  -4.551  62.998  1.00  0.00     0.026 A 
ATOM     14  C   UNL     1     -24.417  -4.923  61.821  1.00  0.00     0.002 A 
ATOM     15  C   UNL     1     -24.892  -0.780  62.703  1.00  0.00     0.047 C 
BRANCH  11  16
ATOM     16  N   UNL     1     -25.875  -2.734  64.443  1.00  0.00    -0.399 N 
ATOM     17  H   UNL     1     -26.907  -2.775  64.551  1.00  0.00     0.156 HD
ATOM     18  H   UNL     1     -25.256  -2.358  65.201  1.00  0.00     0.156 HD
ENDBRANCH  11  16
ENDBRANCH   8   9
ENDBRANCH   1   8
BRANCH   4  19
ATOM     19  O   UNL     1     -18.025  -0.874  60.050  1.00  0.00    -0.493 OA
BRANCH  19  20
ATOM     20  C   UNL     1     -17.319   0.180  60.677  1.00  0.00     0.235 C 
BRANCH  20  21
ATOM     21  C   UNL     1     -16.570   0.997  59.646  1.00  0.00     0.088 C 
BRANCH  21  22
ATOM     22  C   UNL     1     -15.429   1.637  60.327  1.00  0.00     0.008 A 
ATOM     23  C   UNL     1     -15.006   2.966  60.288  1.00  0.00     0.015 A 
ATOM     24  S   UNL     1     -14.260   0.809  61.424  1.00  0.00    -0.149 S 
ATOM     25  C   UNL     1     -13.935   3.300  61.001  1.00  0.00     0.012 A 
ATOM     26  C   UNL     1     -13.296   2.350  61.733  1.00  0.00     0.065 A 
ENDBRANCH  21  22
ENDBRANCH  20  21
ENDBRANCH  19  20
ENDBRANCH   4  19
TORSDOF 7
ENDMDL
MODEL 9
REMARK VINA RESULT:    -5.209      3.501      8.932
REMARK INTER + INTRA:          -7.971
REMARK INTER:                  -7.841
REMARK INTRA:                  -0.130
REMARK UNBOUND:                -0.783
REMARK SMILES Cc1c(N)cccc1Cn1ccc(OCCc2cccs2)cc1=O
REMARK SMILES IDX 10 1 11 2 12 3 13 4 22 5 23 6 24 7 9 8 8 9 2 10 3 11 7 12
REMARK SMILES IDX 5 13 6 14 1 15 4 16 14 19 15 20 16 21 17 22 18 23 21 24
REMARK SMILES IDX 19 25 20 26
REMARK H PARENT 4 17 4 18
ROOT
ATOM      1  N   UNL     1     -18.848  -0.556  60.173  1.00  0.00    -0.311 N 
ATOM      2  C   UNL     1     -18.948  -1.145  61.384  1.00  0.00     0.093 A 
ATOM      3  C   UNL     1     -20.177  -1.582  61.883  1.00  0.00     0.064 A 
ATOM      4  C   UNL     1     -21.307  -1.405  61.118  1.00  0.00     0.126 A 
ATOM      5  C   UNL     1     -21.215  -0.798  59.865  1.00  0.00     0.118 A 
ATOM      6  C   UNL     1     -19.971  -0.382  59.419  1.00  0.00     0.254 A 
ATOM      7  O   UNL     1     -19.891   0.168  58.282  1.00  0.00    -0.269 OA
ENDROOT
BRANCH   1   8
ATOM      8  C   UNL     1     -17.611  -0.089  59.611  1.00  0.00     0.161 C 
BRANCH   8   9
ATOM      9  C   UNL     1     -16.794   0.728  60.523  1.00  0.00    -0.023 A 
ATOM     10  C   UNL     1     -16.036   1.757  60.016  1.00  0.00    -0.023 A 
ATOM     11  C   UNL     1     -15.256   2.547  60.838  1.00  0.00     0.035 A 
ATOM     12  C   UNL     1     -16.756   0.498  61.899  1.00  0.00     0.006 A 
ATOM     13  C   UNL     1     -15.203   2.336  62.215  1.00  0.00     0.026 A 
ATOM     14  C   UNL     1     -15.973   1.291  62.733  1.00  0.00     0.002 A 
ATOM     15  C   UNL     1     -16.053   2.034  58.538  1.00  0.00     0.047 C 
BRANCH  11  16
ATOM     16  N   UNL     1     -14.489   3.607  60.238  1.00  0.00    -0.399 N 
ATOM     17  H   UNL     1     -14.122   3.545  59.269  1.00  0.00     0.156 HD
ATOM     18  H   UNL     1     -14.321   4.450  60.838  1.00  0.00     0.156 HD
ENDBRANCH  11  16
ENDBRANCH   8   9
ENDBRANCH   1   8
BRANCH   4  19
ATOM     19  O   UNL     1     -22.573  -1.798  61.512  1.00  0.00    -0.493 OA
BRANCH  19  20
ATOM     20  C   UNL     1     -22.856  -3.101  61.987  1.00  0.00     0.235 C 
BRANCH  20  21
ATOM     21  C   UNL     1     -22.632  -4.120  60.891  1.00  0.00     0.088 C 
BRANCH  21  22
ATOM     22  C   UNL     1     -23.747  -3.996  59.932  1.00  0.00     0.008 A 
ATOM     23  C   UNL     1     -23.713  -3.690  58.571  1.00  0.00     0.015 A 
ATOM     24  S   UNL     1     -25.495  -4.223  60.316  1.00  0.00    -0.149 S 
ATOM     25  C   UNL     1     -24.870  -3.638  57.917  1.00  0.00     0.012 A 
ATOM     26  C   UNL     1     -26.028  -3.879  58.585  1.00  0.00     0.065 A 
ENDBRANCH  21  22
ENDBRANCH  20  21
ENDBRANCH  19  20
ENDBRANCH   4  19
TORSDOF 7
ENDMDL
