MODEL 1
REMARK VINA RESULT:    -7.397      0.000      0.000
REMARK INTER + INTRA:          -8.796
REMARK INTER:                  -8.479
REMARK INTRA:                  -0.317
REMARK UNBOUND:                -0.317
REMARK SMILES Oc1cc(Cl)ccc1Oc1ccc(Cl)cc1Cl
REMARK SMILES IDX 6 1 7 2 8 3 2 4 3 5 4 6 5 7 9 8 10 9 16 10 11 11 15 12 12 13
REMARK SMILES IDX 13 14 17 15 14 16 1 17
REMARK H PARENT 1 18
ROOT
ATOM      1  C   UNL     1     -12.028   8.367  62.981  1.00  0.00     0.024 A 
ATOM      2  C   UNL     1     -11.945   8.201  61.622  1.00  0.00     0.052 A 
ATOM      3  C   UNL     1     -13.016   8.479  60.769  1.00  0.00     0.169 A 
ATOM      4  C   UNL     1     -14.204   8.935  61.300  1.00  0.00     0.159 A 
ATOM      5  C   UNL     1     -14.280   9.100  62.684  1.00  0.00     0.070 A 
ATOM      6  C   UNL     1     -13.218   8.823  63.507  1.00  0.00     0.045 A 
ATOM      7  Cl  UNL     1     -13.449   9.075  65.232  1.00  0.00    -0.084 Cl
ENDROOT
BRANCH   3   8
ATOM      8  O   UNL     1     -12.858   8.290  59.421  1.00  0.00    -0.452 OA
BRANCH   8   9
ATOM      9  C   UNL     1     -13.178   7.104  58.791  1.00  0.00     0.146 A 
ATOM     10  C   UNL     1     -13.138   7.087  57.413  1.00  0.00     0.085 A 
ATOM     11  C   UNL     1     -13.533   5.945  59.436  1.00  0.00     0.050 A 
ATOM     12  C   UNL     1     -13.448   5.932  56.700  1.00  0.00     0.045 A 
ATOM     13  C   UNL     1     -13.844   4.787  58.750  1.00  0.00     0.024 A 
ATOM     14  C   UNL     1     -13.805   4.768  57.375  1.00  0.00     0.042 A 
ATOM     15  Cl  UNL     1     -12.701   8.494  56.485  1.00  0.00    -0.080 Cl
ATOM     16  Cl  UNL     1     -14.205   3.288  56.528  1.00  0.00    -0.084 Cl
ENDBRANCH   8   9
ENDBRANCH   3   8
BRANCH   4  17
ATOM     17  O   UNL     1     -15.317   9.232  60.499  1.00  0.00    -0.504 OA
ATOM     18  H   UNL     1     -15.769   8.471  60.014  1.00  0.00     0.293 HD
ENDBRANCH   4  17
TORSDOF 3
ENDMDL
MODEL 2
REMARK VINA RESULT:    -7.354      2.422      2.953
REMARK INTER + INTRA:          -8.746
REMARK INTER:                  -8.225
REMARK INTRA:                  -0.521
REMARK UNBOUND:                -0.317
REMARK SMILES Oc1cc(Cl)ccc1Oc1ccc(Cl)cc1Cl
REMARK SMILES IDX 6 1 7 2 8 3 2 4 3 5 4 6 5 7 9 8 10 9 16 10 11 11 15 12 12 13
REMARK SMILES IDX 13 14 17 15 14 16 1 17
REMARK H PARENT 1 18
ROOT
ATOM      1  C   UNL     1     -12.295   6.985  60.356  1.00  0.00     0.024 A 
ATOM      2  C   UNL     1     -12.749   6.883  59.065  1.00  0.00     0.052 A 
ATOM      3  C   UNL     1     -13.392   7.939  58.415  1.00  0.00     0.169 A 
ATOM      4  C   UNL     1     -13.585   9.130  59.083  1.00  0.00     0.159 A 
ATOM      5  C   UNL     1     -13.120   9.224  60.396  1.00  0.00     0.070 A 
ATOM      6  C   UNL     1     -12.491   8.177  61.020  1.00  0.00     0.045 A 
ATOM      7  Cl  UNL     1     -11.956   8.430  62.676  1.00  0.00    -0.084 Cl
ENDROOT
BRANCH   3   8
ATOM      8  O   UNL     1     -13.816   7.764  57.124  1.00  0.00    -0.452 OA
BRANCH   8   9
ATOM      9  C   UNL     1     -14.834   6.895  56.784  1.00  0.00     0.146 A 
ATOM     10  C   UNL     1     -14.546   5.912  55.861  1.00  0.00     0.085 A 
ATOM     11  C   UNL     1     -16.106   6.940  57.297  1.00  0.00     0.050 A 
ATOM     12  C   UNL     1     -15.516   4.995  55.463  1.00  0.00     0.045 A 
ATOM     13  C   UNL     1     -17.085   6.041  56.917  1.00  0.00     0.024 A 
ATOM     14  C   UNL     1     -16.800   5.060  55.996  1.00  0.00     0.042 A 
ATOM     15  Cl  UNL     1     -12.968   5.753  55.142  1.00  0.00    -0.080 Cl
ATOM     16  Cl  UNL     1     -18.058   3.933  55.530  1.00  0.00    -0.084 Cl
ENDBRANCH   8   9
ENDBRANCH   3   8
BRANCH   4  17
ATOM     17  O   UNL     1     -14.222  10.228  58.487  1.00  0.00    -0.504 OA
ATOM     18  H   UNL     1     -13.664  10.847  57.917  1.00  0.00     0.293 HD
ENDBRANCH   4  17
TORSDOF 3
ENDMDL
MODEL 3
REMARK VINA RESULT:    -7.158      2.235      6.276
REMARK INTER + INTRA:          -8.521
REMARK INTER:                  -8.100
REMARK INTRA:                  -0.421
REMARK UNBOUND:                -0.317
REMARK SMILES Oc1cc(Cl)ccc1Oc1ccc(Cl)cc1Cl
REMARK SMILES IDX 6 1 7 2 8 3 2 4 3 5 4 6 5 7 9 8 10 9 16 10 11 11 15 12 12 13
REMARK SMILES IDX 13 14 17 15 14 16 1 17
REMARK H PARENT 1 18
ROOT
ATOM      1  C   UNL     1     -16.161   5.561  56.915  1.00  0.00     0.024 A 
ATOM      2  C   UNL     1     -15.236   6.485  57.329  1.00  0.00     0.052 A 
ATOM      3  C   UNL     1     -13.974   6.593  56.740  1.00  0.00     0.169 A 
ATOM      4  C   UNL     1     -13.633   5.746  55.707  1.00  0.00     0.159 A 
ATOM      5  C   UNL     1     -14.581   4.809  55.292  1.00  0.00     0.070 A 
ATOM      6  C   UNL     1     -15.817   4.716  55.882  1.00  0.00     0.045 A 
ATOM      7  Cl  UNL     1     -16.915   3.490  55.263  1.00  0.00    -0.084 Cl
ENDROOT
BRANCH   3   8
ATOM      8  O   UNL     1     -13.102   7.542  57.207  1.00  0.00    -0.452 OA
BRANCH   8   9
ATOM      9  C   UNL     1     -12.914   7.786  58.552  1.00  0.00     0.146 A 
ATOM     10  C   UNL     1     -13.469   8.936  59.073  1.00  0.00     0.085 A 
ATOM     11  C   UNL     1     -12.215   6.968  59.406  1.00  0.00     0.050 A 
ATOM     12  C   UNL     1     -13.325   9.256  60.420  1.00  0.00     0.045 A 
ATOM     13  C   UNL     1     -12.059   7.266  60.746  1.00  0.00     0.024 A 
ATOM     14  C   UNL     1     -12.612   8.413  61.267  1.00  0.00     0.042 A 
ATOM     15  Cl  UNL     1     -14.378  10.049  58.089  1.00  0.00    -0.080 Cl
ATOM     16  Cl  UNL     1     -12.399   8.768  62.969  1.00  0.00    -0.084 Cl
ENDBRANCH   8   9
ENDBRANCH   3   8
BRANCH   4  17
ATOM     17  O   UNL     1     -12.384   5.803  55.072  1.00  0.00    -0.504 OA
ATOM     18  H   UNL     1     -12.285   5.342  54.179  1.00  0.00     0.293 HD
ENDBRANCH   4  17
TORSDOF 3
ENDMDL
MODEL 4
REMARK VINA RESULT:    -7.152     10.001     13.073
REMARK INTER + INTRA:          -8.514
REMARK INTER:                  -8.156
REMARK INTRA:                  -0.358
REMARK UNBOUND:                -0.317
REMARK SMILES Oc1cc(Cl)ccc1Oc1ccc(Cl)cc1Cl
REMARK SMILES IDX 6 1 7 2 8 3 2 4 3 5 4 6 5 7 9 8 10 9 16 10 11 11 15 12 12 13
REMARK SMILES IDX 13 14 17 15 14 16 1 17
REMARK H PARENT 1 18
ROOT
ATOM      1  C   UNL     1     -22.821  -0.117  52.678  1.00  0.00     0.024 A 
ATOM      2  C   UNL     1     -22.458   0.395  53.898  1.00  0.00     0.052 A 
ATOM      3  C   UNL     1     -21.334  -0.057  54.593  1.00  0.00     0.169 A 
ATOM      4  C   UNL     1     -20.553  -1.053  54.044  1.00  0.00     0.159 A 
ATOM      5  C   UNL     1     -20.930  -1.568  52.803  1.00  0.00     0.070 A 
ATOM      6  C   UNL     1     -22.038  -1.112  52.134  1.00  0.00     0.045 A 
ATOM      7  Cl  UNL     1     -22.399  -1.848  50.579  1.00  0.00    -0.084 Cl
ENDROOT
BRANCH   3   8
ATOM      8  O   UNL     1     -21.033   0.503  55.807  1.00  0.00    -0.452 OA
BRANCH   8   9
ATOM      9  C   UNL     1     -21.235   1.841  56.083  1.00  0.00     0.146 A 
ATOM     10  C   UNL     1     -22.107   2.154  57.103  1.00  0.00     0.085 A 
ATOM     11  C   UNL     1     -20.630   2.877  55.416  1.00  0.00     0.050 A 
ATOM     12  C   UNL     1     -22.366   3.478  57.446  1.00  0.00     0.045 A 
ATOM     13  C   UNL     1     -20.872   4.200  55.738  1.00  0.00     0.024 A 
ATOM     14  C   UNL     1     -21.742   4.513  56.756  1.00  0.00     0.042 A 
ATOM     15  Cl  UNL     1     -22.932   0.926  58.022  1.00  0.00    -0.080 Cl
ATOM     16  Cl  UNL     1     -22.032   6.197  57.144  1.00  0.00    -0.084 Cl
ENDBRANCH   8   9
ENDBRANCH   3   8
BRANCH   4  17
ATOM     17  O   UNL     1     -19.411  -1.550  54.689  1.00  0.00    -0.504 OA
ATOM     18  H   UNL     1     -19.217  -1.226  55.625  1.00  0.00     0.293 HD
ENDBRANCH   4  17
TORSDOF 3
ENDMDL
MODEL 5
REMARK VINA RESULT:    -7.132      9.279     11.526
REMARK INTER + INTRA:          -8.491
REMARK INTER:                  -8.171
REMARK INTRA:                  -0.320
REMARK UNBOUND:                -0.317
REMARK SMILES Oc1cc(Cl)ccc1Oc1ccc(Cl)cc1Cl
REMARK SMILES IDX 6 1 7 2 8 3 2 4 3 5 4 6 5 7 9 8 10 9 16 10 11 11 15 12 12 13
REMARK SMILES IDX 13 14 17 15 14 16 1 17
REMARK H PARENT 1 18
ROOT
ATOM      1  C   UNL     1     -21.477   4.804  55.962  1.00  0.00     0.024 A 
ATOM      2  C   UNL     1     -21.853   3.491  55.835  1.00  0.00     0.052 A 
ATOM      3  C   UNL     1     -20.947   2.483  55.500  1.00  0.00     0.169 A 
ATOM      4  C   UNL     1     -19.623   2.806  55.284  1.00  0.00     0.159 A 
ATOM      5  C   UNL     1     -19.249   4.145  55.415  1.00  0.00     0.070 A 
ATOM      6  C   UNL     1     -20.153   5.123  55.745  1.00  0.00     0.045 A 
ATOM      7  Cl  UNL     1     -19.548   6.768  55.876  1.00  0.00    -0.084 Cl
ENDROOT
BRANCH   3   8
ATOM      8  O   UNL     1     -21.397   1.193  55.393  1.00  0.00    -0.452 OA
BRANCH   8   9
ATOM      9  C   UNL     1     -21.894   0.671  54.216  1.00  0.00     0.146 A 
ATOM     10  C   UNL     1     -21.227  -0.402  53.665  1.00  0.00     0.085 A 
ATOM     11  C   UNL     1     -23.003   1.143  53.557  1.00  0.00     0.050 A 
ATOM     12  C   UNL     1     -21.663  -0.988  52.480  1.00  0.00     0.045 A 
ATOM     13  C   UNL     1     -23.454   0.579  52.379  1.00  0.00     0.024 A 
ATOM     14  C   UNL     1     -22.789  -0.492  51.829  1.00  0.00     0.042 A 
ATOM     15  Cl  UNL     1     -19.810  -1.089  54.410  1.00  0.00    -0.080 Cl
ATOM     16  Cl  UNL     1     -23.381  -1.189  50.335  1.00  0.00    -0.084 Cl
ENDBRANCH   8   9
ENDBRANCH   3   8
BRANCH   4  17
ATOM     17  O   UNL     1     -18.662   1.842  54.946  1.00  0.00    -0.504 OA
ATOM     18  H   UNL     1     -18.481   1.101  55.607  1.00  0.00     0.293 HD
ENDBRANCH   4  17
TORSDOF 3
ENDMDL
MODEL 6
REMARK VINA RESULT:    -7.115      3.306      6.867
REMARK INTER + INTRA:          -8.472
REMARK INTER:                  -8.170
REMARK INTRA:                  -0.302
REMARK UNBOUND:                -0.317
REMARK SMILES Oc1cc(Cl)ccc1Oc1ccc(Cl)cc1Cl
REMARK SMILES IDX 6 1 7 2 8 3 2 4 3 5 4 6 5 7 9 8 10 9 16 10 11 11 15 12 12 13
REMARK SMILES IDX 13 14 17 15 14 16 1 17
REMARK H PARENT 1 18
ROOT
ATOM      1  C   UNL     1     -17.063   6.555  55.912  1.00  0.00     0.024 A 
ATOM      2  C   UNL     1     -15.904   6.334  56.612  1.00  0.00     0.052 A 
ATOM      3  C   UNL     1     -14.808   5.674  56.052  1.00  0.00     0.169 A 
ATOM      4  C   UNL     1     -14.881   5.221  54.751  1.00  0.00     0.159 A 
ATOM      5  C   UNL     1     -16.064   5.450  54.047  1.00  0.00     0.070 A 
ATOM      6  C   UNL     1     -17.132   6.102  54.612  1.00  0.00     0.045 A 
ATOM      7  Cl  UNL     1     -18.561   6.323  53.613  1.00  0.00    -0.084 Cl
ENDROOT
BRANCH   3   8
ATOM      8  O   UNL     1     -13.683   5.490  56.813  1.00  0.00    -0.452 OA
BRANCH   8   9
ATOM      9  C   UNL     1     -13.356   6.311  57.873  1.00  0.00     0.146 A 
ATOM     10  C   UNL     1     -13.387   5.760  59.137  1.00  0.00     0.085 A 
ATOM     11  C   UNL     1     -13.004   7.633  57.759  1.00  0.00     0.050 A 
ATOM     12  C   UNL     1     -13.071   6.520  60.260  1.00  0.00     0.045 A 
ATOM     13  C   UNL     1     -12.687   8.408  58.860  1.00  0.00     0.024 A 
ATOM     14  C   UNL     1     -12.717   7.858  60.121  1.00  0.00     0.042 A 
ATOM     15  Cl  UNL     1     -13.817   4.094  59.406  1.00  0.00    -0.080 Cl
ATOM     16  Cl  UNL     1     -12.311   8.861  61.499  1.00  0.00    -0.084 Cl
ENDBRANCH   8   9
ENDBRANCH   3   8
BRANCH   4  17
ATOM     17  O   UNL     1     -13.817   4.552  54.130  1.00  0.00    -0.504 OA
ATOM     18  H   UNL     1     -13.563   3.639  54.479  1.00  0.00     0.293 HD
ENDBRANCH   4  17
TORSDOF 3
ENDMDL
MODEL 7
REMARK VINA RESULT:    -6.956      3.977      6.960
REMARK INTER + INTRA:          -8.289
REMARK INTER:                  -7.769
REMARK INTRA:                  -0.520
REMARK UNBOUND:                -0.317
REMARK SMILES Oc1cc(Cl)ccc1Oc1ccc(Cl)cc1Cl
REMARK SMILES IDX 6 1 7 2 8 3 2 4 3 5 4 6 5 7 9 8 10 9 16 10 11 11 15 12 12 13
REMARK SMILES IDX 13 14 17 15 14 16 1 17
REMARK H PARENT 1 18
ROOT
ATOM      1  C   UNL     1     -17.377   6.459  54.595  1.00  0.00     0.024 A 
ATOM      2  C   UNL     1     -16.172   6.048  55.107  1.00  0.00     0.052 A 
ATOM      3  C   UNL     1     -16.008   4.806  55.724  1.00  0.00     0.169 A 
ATOM      4  C   UNL     1     -17.087   3.954  55.832  1.00  0.00     0.159 A 
ATOM      5  C   UNL     1     -18.309   4.381  55.309  1.00  0.00     0.070 A 
ATOM      6  C   UNL     1     -18.453   5.605  54.705  1.00  0.00     0.045 A 
ATOM      7  Cl  UNL     1     -20.048   6.017  54.090  1.00  0.00    -0.084 Cl
ENDROOT
BRANCH   3   8
ATOM      8  O   UNL     1     -14.774   4.464  56.211  1.00  0.00    -0.452 OA
BRANCH   8   9
ATOM      9  C   UNL     1     -14.189   5.107  57.284  1.00  0.00     0.146 A 
ATOM     10  C   UNL     1     -13.073   5.877  57.032  1.00  0.00     0.085 A 
ATOM     11  C   UNL     1     -14.639   5.034  58.579  1.00  0.00     0.050 A 
ATOM     12  C   UNL     1     -12.424   6.558  58.058  1.00  0.00     0.045 A 
ATOM     13  C   UNL     1     -14.010   5.701  59.614  1.00  0.00     0.024 A 
ATOM     14  C   UNL     1     -12.897   6.469  59.364  1.00  0.00     0.042 A 
ATOM     15  Cl  UNL     1     -12.412   6.047  55.430  1.00  0.00    -0.080 Cl
ATOM     16  Cl  UNL     1     -12.118   7.303  60.694  1.00  0.00    -0.084 Cl
ENDBRANCH   8   9
ENDBRANCH   3   8
BRANCH   4  17
ATOM     17  O   UNL     1     -16.990   2.694  56.439  1.00  0.00    -0.504 OA
ATOM     18  H   UNL     1     -17.431   1.911  55.980  1.00  0.00     0.293 HD
ENDBRANCH   4  17
TORSDOF 3
ENDMDL
MODEL 8
REMARK VINA RESULT:    -6.910      2.587      3.387
REMARK INTER + INTRA:          -8.237
REMARK INTER:                  -7.820
REMARK INTRA:                  -0.417
REMARK UNBOUND:                -0.317
REMARK SMILES Oc1cc(Cl)ccc1Oc1ccc(Cl)cc1Cl
REMARK SMILES IDX 6 1 7 2 8 3 2 4 3 5 4 6 5 7 9 8 10 9 16 10 11 11 15 12 12 13
REMARK SMILES IDX 13 14 17 15 14 16 1 17
REMARK H PARENT 1 18
ROOT
ATOM      1  C   UNL     1     -13.957   7.120  60.823  1.00  0.00     0.024 A 
ATOM      2  C   UNL     1     -14.738   7.042  59.697  1.00  0.00     0.052 A 
ATOM      3  C   UNL     1     -14.615   7.946  58.640  1.00  0.00     0.169 A 
ATOM      4  C   UNL     1     -13.682   8.958  58.718  1.00  0.00     0.159 A 
ATOM      5  C   UNL     1     -12.892   9.030  59.867  1.00  0.00     0.070 A 
ATOM      6  C   UNL     1     -13.026   8.133  60.897  1.00  0.00     0.045 A 
ATOM      7  Cl  UNL     1     -11.968   8.339  62.286  1.00  0.00    -0.084 Cl
ENDROOT
BRANCH   3   8
ATOM      8  O   UNL     1     -15.429   7.805  57.547  1.00  0.00    -0.452 OA
BRANCH   8   9
ATOM      9  C   UNL     1     -15.184   6.885  56.547  1.00  0.00     0.146 A 
ATOM     10  C   UNL     1     -16.272   6.387  55.861  1.00  0.00     0.085 A 
ATOM     11  C   UNL     1     -13.939   6.432  56.188  1.00  0.00     0.050 A 
ATOM     12  C   UNL     1     -16.112   5.456  54.839  1.00  0.00     0.045 A 
ATOM     13  C   UNL     1     -13.755   5.507  55.177  1.00  0.00     0.024 A 
ATOM     14  C   UNL     1     -14.840   5.010  54.493  1.00  0.00     0.042 A 
ATOM     15  Cl  UNL     1     -17.900   6.888  56.225  1.00  0.00    -0.080 Cl
ATOM     16  Cl  UNL     1     -14.581   3.839  53.216  1.00  0.00    -0.084 Cl
ENDBRANCH   8   9
ENDBRANCH   3   8
BRANCH   4  17
ATOM     17  O   UNL     1     -13.507   9.898  57.692  1.00  0.00    -0.504 OA
ATOM     18  H   UNL     1     -14.197  10.629  57.596  1.00  0.00     0.293 HD
ENDBRANCH   4  17
TORSDOF 3
ENDMDL
MODEL 9
REMARK VINA RESULT:    -6.873      2.448      3.422
REMARK INTER + INTRA:          -8.195
REMARK INTER:                  -7.694
REMARK INTRA:                  -0.501
REMARK UNBOUND:                -0.317
REMARK SMILES Oc1cc(Cl)ccc1Oc1ccc(Cl)cc1Cl
REMARK SMILES IDX 6 1 7 2 8 3 2 4 3 5 4 6 5 7 9 8 10 9 16 10 11 11 15 12 12 13
REMARK SMILES IDX 13 14 17 15 14 16 1 17
REMARK H PARENT 1 18
ROOT
ATOM      1  C   UNL     1     -12.714   6.846  60.401  1.00  0.00     0.024 A 
ATOM      2  C   UNL     1     -13.621   6.161  59.633  1.00  0.00     0.052 A 
ATOM      3  C   UNL     1     -14.908   6.645  59.387  1.00  0.00     0.169 A 
ATOM      4  C   UNL     1     -15.293   7.852  59.931  1.00  0.00     0.159 A 
ATOM      5  C   UNL     1     -14.364   8.542  60.712  1.00  0.00     0.070 A 
ATOM      6  C   UNL     1     -13.103   8.052  60.943  1.00  0.00     0.045 A 
ATOM      7  Cl  UNL     1     -12.033   9.022  61.945  1.00  0.00    -0.084 Cl
ENDROOT
BRANCH   3   8
ATOM      8  O   UNL     1     -15.759   5.905  58.609  1.00  0.00    -0.452 OA
BRANCH   8   9
ATOM      9  C   UNL     1     -15.445   5.515  57.322  1.00  0.00     0.146 A 
ATOM     10  C   UNL     1     -15.367   4.161  57.071  1.00  0.00     0.085 A 
ATOM     11  C   UNL     1     -15.208   6.375  56.279  1.00  0.00     0.050 A 
ATOM     12  C   UNL     1     -15.056   3.684  55.800  1.00  0.00     0.045 A 
ATOM     13  C   UNL     1     -14.897   5.925  55.010  1.00  0.00     0.024 A 
ATOM     14  C   UNL     1     -14.818   4.575  54.758  1.00  0.00     0.042 A 
ATOM     15  Cl  UNL     1     -15.650   2.974  58.313  1.00  0.00    -0.080 Cl
ATOM     16  Cl  UNL     1     -14.422   4.029  53.141  1.00  0.00    -0.084 Cl
ENDBRANCH   8   9
ENDBRANCH   3   8
BRANCH   4  17
ATOM     17  O   UNL     1     -16.569   8.395  59.722  1.00  0.00    -0.504 OA
ATOM     18  H   UNL     1     -17.314   7.766  59.457  1.00  0.00     0.293 HD
ENDBRANCH   4  17
TORSDOF 3
ENDMDL
