MODEL 1
REMARK VINA RESULT:    -8.150      0.000      0.000
REMARK INTER + INTRA:         -12.283
REMARK INTER:                 -11.246
REMARK INTRA:                  -1.037
REMARK UNBOUND:                -1.037
REMARK SMILES Cc1c(N)cccc1Cn1ccc(OCCc2cccs2)cc1=O
REMARK SMILES IDX 10 1 11 2 12 3 13 4 22 5 23 6 24 7 9 8 8 9 2 10 3 11 7 12
REMARK SMILES IDX 5 13 6 14 1 15 4 16 14 19 15 20 16 21 17 22 18 23 21 24
REMARK SMILES IDX 19 25 20 26
REMARK H PARENT 4 17 4 18
ROOT
ATOM      1  N   UNL     1     -15.964   4.189  56.610  1.00  0.00    -0.311 N 
ATOM      2  C   UNL     1     -16.388   4.888  57.685  1.00  0.00     0.093 A 
ATOM      3  C   UNL     1     -15.489   5.404  58.621  1.00  0.00     0.064 A 
ATOM      4  C   UNL     1     -14.142   5.192  58.436  1.00  0.00     0.126 A 
ATOM      5  C   UNL     1     -13.692   4.472  57.330  1.00  0.00     0.118 A 
ATOM      6  C   UNL     1     -14.627   3.982  56.433  1.00  0.00     0.254 A 
ATOM      7  O   UNL     1     -14.216   3.329  55.430  1.00  0.00    -0.269 OA
ENDROOT
BRANCH   1   8
ATOM      8  C   UNL     1     -16.843   3.637  55.618  1.00  0.00     0.161 C 
BRANCH   8   9
ATOM      9  C   UNL     1     -17.750   4.612  54.992  1.00  0.00    -0.023 A 
ATOM     10  C   UNL     1     -19.109   4.475  55.154  1.00  0.00    -0.023 A 
ATOM     11  C   UNL     1     -19.993   5.369  54.583  1.00  0.00     0.035 A 
ATOM     12  C   UNL     1     -17.283   5.684  54.230  1.00  0.00     0.006 A 
ATOM     13  C   UNL     1     -19.550   6.447  53.819  1.00  0.00     0.026 A 
ATOM     14  C   UNL     1     -18.169   6.588  53.652  1.00  0.00     0.002 A 
ATOM     15  C   UNL     1     -19.649   3.332  55.969  1.00  0.00     0.047 C 
BRANCH  11  16
ATOM     16  N   UNL     1     -21.402   5.164  54.795  1.00  0.00    -0.399 N 
ATOM     17  H   UNL     1     -21.767   4.590  55.580  1.00  0.00     0.156 HD
ATOM     18  H   UNL     1     -22.044   5.629  54.109  1.00  0.00     0.156 HD
ENDBRANCH  11  16
ENDBRANCH   8   9
ENDBRANCH   1   8
BRANCH   4  19
ATOM     19  O   UNL     1     -13.164   5.657  59.298  1.00  0.00    -0.493 OA
BRANCH  19  20
ATOM     20  C   UNL     1     -12.201   6.621  58.913  1.00  0.00     0.235 C 
BRANCH  20  21
ATOM     21  C   UNL     1     -12.799   8.010  58.965  1.00  0.00     0.088 C 
BRANCH  21  22
ATOM     22  C   UNL     1     -13.132   8.300  60.373  1.00  0.00     0.008 A 
ATOM     23  C   UNL     1     -12.281   8.502  61.460  1.00  0.00     0.015 A 
ATOM     24  S   UNL     1     -14.797   8.471  61.046  1.00  0.00    -0.149 S 
ATOM     25  C   UNL     1     -12.833   8.753  62.643  1.00  0.00     0.012 A 
ATOM     26  C   UNL     1     -14.186   8.802  62.754  1.00  0.00     0.065 A 
ENDBRANCH  21  22
ENDBRANCH  20  21
ENDBRANCH  19  20
ENDBRANCH   4  19
TORSDOF 7
ENDMDL
MODEL 2
REMARK VINA RESULT:    -8.123      3.034      7.531
REMARK INTER + INTRA:         -12.247
REMARK INTER:                 -11.532
REMARK INTRA:                  -0.715
REMARK UNBOUND:                -1.037
REMARK SMILES Cc1c(N)cccc1Cn1ccc(OCCc2cccs2)cc1=O
REMARK SMILES IDX 10 1 11 2 12 3 13 4 22 5 23 6 24 7 9 8 8 9 2 10 3 11 7 12
REMARK SMILES IDX 5 13 6 14 1 15 4 16 14 19 15 20 16 21 17 22 18 23 21 24
REMARK SMILES IDX 19 25 20 26
REMARK H PARENT 4 17 4 18
ROOT
ATOM      1  N   UNL     1     -14.527   5.280  56.657  1.00  0.00    -0.311 N 
ATOM      2  C   UNL     1     -15.697   5.566  57.267  1.00  0.00     0.093 A 
ATOM      3  C   UNL     1     -16.900   5.600  56.558  1.00  0.00     0.064 A 
ATOM      4  C   UNL     1     -16.884   5.336  55.207  1.00  0.00     0.126 A 
ATOM      5  C   UNL     1     -15.681   5.039  54.567  1.00  0.00     0.118 A 
ATOM      6  C   UNL     1     -14.517   5.019  55.318  1.00  0.00     0.254 A 
ATOM      7  O   UNL     1     -13.427   4.750  54.735  1.00  0.00    -0.269 OA
ENDROOT
BRANCH   1   8
ATOM      8  C   UNL     1     -13.263   5.231  57.337  1.00  0.00     0.161 C 
BRANCH   8   9
ATOM      9  C   UNL     1     -13.040   6.325  58.296  1.00  0.00    -0.023 A 
ATOM     10  C   UNL     1     -12.763   7.589  57.831  1.00  0.00    -0.023 A 
ATOM     11  C   UNL     1     -12.548   8.642  58.698  1.00  0.00     0.035 A 
ATOM     12  C   UNL     1     -13.098   6.130  59.677  1.00  0.00     0.006 A 
ATOM     13  C   UNL     1     -12.602   8.471  60.080  1.00  0.00     0.026 A 
ATOM     14  C   UNL     1     -12.883   7.187  60.556  1.00  0.00     0.002 A 
ATOM     15  C   UNL     1     -12.693   7.836  56.349  1.00  0.00     0.047 C 
BRANCH  11  16
ATOM     16  N   UNL     1     -12.264   9.938  58.139  1.00  0.00    -0.399 N 
ATOM     17  H   UNL     1     -12.865  10.765  58.323  1.00  0.00     0.156 HD
ATOM     18  H   UNL     1     -11.411  10.001  57.533  1.00  0.00     0.156 HD
ENDBRANCH  11  16
ENDBRANCH   8   9
ENDBRANCH   1   8
BRANCH   4  19
ATOM     19  O   UNL     1     -18.013   5.342  54.408  1.00  0.00    -0.493 OA
BRANCH  19  20
ATOM     20  C   UNL     1     -18.694   6.531  54.055  1.00  0.00     0.235 C 
BRANCH  20  21
ATOM     21  C   UNL     1     -20.158   6.243  53.799  1.00  0.00     0.088 C 
BRANCH  21  22
ATOM     22  C   UNL     1     -20.718   5.658  55.032  1.00  0.00     0.008 A 
ATOM     23  C   UNL     1     -20.927   6.252  56.278  1.00  0.00     0.015 A 
ATOM     24  S   UNL     1     -21.293   3.959  55.223  1.00  0.00    -0.149 S 
ATOM     25  C   UNL     1     -21.455   5.504  57.242  1.00  0.00     0.012 A 
ATOM     26  C   UNL     1     -21.768   4.206  56.988  1.00  0.00     0.065 A 
ENDBRANCH  21  22
ENDBRANCH  20  21
ENDBRANCH  19  20
ENDBRANCH   4  19
TORSDOF 7
ENDMDL
MODEL 3
REMARK VINA RESULT:    -8.021      3.346      7.899
REMARK INTER + INTRA:         -12.106
REMARK INTER:                 -11.566
REMARK INTRA:                  -0.540
REMARK UNBOUND:                -1.037
REMARK SMILES Cc1c(N)cccc1Cn1ccc(OCCc2cccs2)cc1=O
REMARK SMILES IDX 10 1 11 2 12 3 13 4 22 5 23 6 24 7 9 8 8 9 2 10 3 11 7 12
REMARK SMILES IDX 5 13 6 14 1 15 4 16 14 19 15 20 16 21 17 22 18 23 21 24
REMARK SMILES IDX 19 25 20 26
REMARK H PARENT 4 17 4 18
ROOT
ATOM      1  N   UNL     1     -15.561   6.012  56.076  1.00  0.00    -0.311 N 
ATOM      2  C   UNL     1     -16.396   6.642  56.930  1.00  0.00     0.093 A 
ATOM      3  C   UNL     1     -17.694   6.995  56.553  1.00  0.00     0.064 A 
ATOM      4  C   UNL     1     -18.124   6.692  55.281  1.00  0.00     0.126 A 
ATOM      5  C   UNL     1     -17.269   6.042  54.391  1.00  0.00     0.118 A 
ATOM      6  C   UNL     1     -15.992   5.715  54.816  1.00  0.00     0.254 A 
ATOM      7  O   UNL     1     -15.219   5.125  54.006  1.00  0.00    -0.269 OA
ENDROOT
BRANCH   1   8
ATOM      8  C   UNL     1     -14.219   5.626  56.410  1.00  0.00     0.161 C 
BRANCH   8   9
ATOM      9  C   UNL     1     -13.631   6.366  57.538  1.00  0.00    -0.023 A 
ATOM     10  C   UNL     1     -13.072   7.603  57.321  1.00  0.00    -0.023 A 
ATOM     11  C   UNL     1     -12.512   8.329  58.353  1.00  0.00     0.035 A 
ATOM     12  C   UNL     1     -13.616   5.857  58.838  1.00  0.00     0.006 A 
ATOM     13  C   UNL     1     -12.486   7.841  59.658  1.00  0.00     0.026 A 
ATOM     14  C   UNL     1     -13.053   6.583  59.883  1.00  0.00     0.002 A 
ATOM     15  C   UNL     1     -13.071   8.184  55.933  1.00  0.00     0.047 C 
BRANCH  11  16
ATOM     16  N   UNL     1     -11.946   9.618  58.051  1.00  0.00    -0.399 N 
ATOM     17  H   UNL     1     -11.037   9.723  57.560  1.00  0.00     0.156 HD
ATOM     18  H   UNL     1     -12.506  10.450  58.357  1.00  0.00     0.156 HD
ENDBRANCH  11  16
ENDBRANCH   8   9
ENDBRANCH   1   8
BRANCH   4  19
ATOM     19  O   UNL     1     -19.386   6.995  54.802  1.00  0.00    -0.493 OA
BRANCH  19  20
ATOM     20  C   UNL     1     -20.438   6.049  54.768  1.00  0.00     0.235 C 
BRANCH  20  21
ATOM     21  C   UNL     1     -21.014   5.854  56.154  1.00  0.00     0.088 C 
BRANCH  21  22
ATOM     22  C   UNL     1     -21.377   4.431  56.291  1.00  0.00     0.008 A 
ATOM     23  C   UNL     1     -22.133   3.801  57.280  1.00  0.00     0.015 A 
ATOM     24  S   UNL     1     -20.903   3.112  55.155  1.00  0.00    -0.149 S 
ATOM     25  C   UNL     1     -22.322   2.488  57.177  1.00  0.00     0.012 A 
ATOM     26  C   UNL     1     -21.779   1.814  56.129  1.00  0.00     0.065 A 
ENDBRANCH  21  22
ENDBRANCH  20  21
ENDBRANCH  19  20
ENDBRANCH   4  19
TORSDOF 7
ENDMDL
MODEL 4
REMARK VINA RESULT:    -7.890      2.771      4.205
REMARK INTER + INTRA:         -11.925
REMARK INTER:                 -11.114
REMARK INTRA:                  -0.811
REMARK UNBOUND:                -1.037
REMARK SMILES Cc1c(N)cccc1Cn1ccc(OCCc2cccs2)cc1=O
REMARK SMILES IDX 10 1 11 2 12 3 13 4 22 5 23 6 24 7 9 8 8 9 2 10 3 11 7 12
REMARK SMILES IDX 5 13 6 14 1 15 4 16 14 19 15 20 16 21 17 22 18 23 21 24
REMARK SMILES IDX 19 25 20 26
REMARK H PARENT 4 17 4 18
ROOT
ATOM      1  N   UNL     1     -19.256   4.881  55.450  1.00  0.00    -0.311 N 
ATOM      2  C   UNL     1     -18.213   4.121  55.848  1.00  0.00     0.093 A 
ATOM      3  C   UNL     1     -17.077   4.688  56.430  1.00  0.00     0.064 A 
ATOM      4  C   UNL     1     -17.026   6.053  56.598  1.00  0.00     0.126 A 
ATOM      5  C   UNL     1     -18.098   6.848  56.191  1.00  0.00     0.118 A 
ATOM      6  C   UNL     1     -19.200   6.233  55.619  1.00  0.00     0.254 A 
ATOM      7  O   UNL     1     -20.171   6.957  55.251  1.00  0.00    -0.269 OA
ENDROOT
BRANCH   1   8
ATOM      8  C   UNL     1     -20.447   4.351  54.848  1.00  0.00     0.161 C 
BRANCH   8   9
ATOM      9  C   UNL     1     -21.184   3.393  55.687  1.00  0.00    -0.023 A 
ATOM     10  C   UNL     1     -21.320   2.089  55.270  1.00  0.00    -0.023 A 
ATOM     11  C   UNL     1     -22.004   1.160  56.029  1.00  0.00     0.035 A 
ATOM     12  C   UNL     1     -21.760   3.757  56.906  1.00  0.00     0.006 A 
ATOM     13  C   UNL     1     -22.586   1.501  57.249  1.00  0.00     0.026 A 
ATOM     14  C   UNL     1     -22.450   2.825  57.676  1.00  0.00     0.002 A 
ATOM     15  C   UNL     1     -20.713   1.661  53.962  1.00  0.00     0.047 C 
BRANCH  11  16
ATOM     16  N   UNL     1     -22.106  -0.186  55.530  1.00  0.00    -0.399 N 
ATOM     17  H   UNL     1     -21.670  -0.479  54.634  1.00  0.00     0.156 HD
ATOM     18  H   UNL     1     -22.648  -0.858  56.125  1.00  0.00     0.156 HD
ENDBRANCH  11  16
ENDBRANCH   8   9
ENDBRANCH   1   8
BRANCH   4  19
ATOM     19  O   UNL     1     -15.954   6.720  57.161  1.00  0.00    -0.493 OA
BRANCH  19  20
ATOM     20  C   UNL     1     -14.611   6.325  56.951  1.00  0.00     0.235 C 
BRANCH  20  21
ATOM     21  C   UNL     1     -13.696   7.530  56.993  1.00  0.00     0.088 C 
BRANCH  21  22
ATOM     22  C   UNL     1     -13.275   7.721  58.394  1.00  0.00     0.008 A 
ATOM     23  C   UNL     1     -12.522   6.880  59.214  1.00  0.00     0.015 A 
ATOM     24  S   UNL     1     -13.653   9.156  59.419  1.00  0.00    -0.149 S 
ATOM     25  C   UNL     1     -12.272   7.284  60.456  1.00  0.00     0.012 A 
ATOM     26  C   UNL     1     -12.750   8.483  60.879  1.00  0.00     0.065 A 
ENDBRANCH  21  22
ENDBRANCH  20  21
ENDBRANCH  19  20
ENDBRANCH   4  19
TORSDOF 7
ENDMDL
MODEL 5
REMARK VINA RESULT:    -7.851      1.516      2.371
REMARK INTER + INTRA:         -11.872
REMARK INTER:                 -11.258
REMARK INTRA:                  -0.614
REMARK UNBOUND:                -1.037
REMARK SMILES Cc1c(N)cccc1Cn1ccc(OCCc2cccs2)cc1=O
REMARK SMILES IDX 10 1 11 2 12 3 13 4 22 5 23 6 24 7 9 8 8 9 2 10 3 11 7 12
REMARK SMILES IDX 5 13 6 14 1 15 4 16 14 19 15 20 16 21 17 22 18 23 21 24
REMARK SMILES IDX 19 25 20 26
REMARK H PARENT 4 17 4 18
ROOT
ATOM      1  N   UNL     1     -15.705   5.947  56.336  1.00  0.00    -0.311 N 
ATOM      2  C   UNL     1     -14.525   5.291  56.388  1.00  0.00     0.093 A 
ATOM      3  C   UNL     1     -13.713   5.340  57.524  1.00  0.00     0.064 A 
ATOM      4  C   UNL     1     -14.131   6.076  58.609  1.00  0.00     0.126 A 
ATOM      5  C   UNL     1     -15.347   6.757  58.566  1.00  0.00     0.118 A 
ATOM      6  C   UNL     1     -16.113   6.675  57.415  1.00  0.00     0.254 A 
ATOM      7  O   UNL     1     -17.216   7.294  57.379  1.00  0.00    -0.269 OA
ENDROOT
BRANCH   1   8
ATOM      8  C   UNL     1     -16.578   5.930  55.197  1.00  0.00     0.161 C 
BRANCH   8   9
ATOM      9  C   UNL     1     -17.683   4.962  55.285  1.00  0.00    -0.023 A 
ATOM     10  C   UNL     1     -18.963   5.363  54.981  1.00  0.00    -0.023 A 
ATOM     11  C   UNL     1     -20.027   4.486  55.051  1.00  0.00     0.035 A 
ATOM     12  C   UNL     1     -17.484   3.635  55.670  1.00  0.00     0.006 A 
ATOM     13  C   UNL     1     -19.851   3.157  55.433  1.00  0.00     0.026 A 
ATOM     14  C   UNL     1     -18.552   2.745  55.742  1.00  0.00     0.002 A 
ATOM     15  C   UNL     1     -19.215   6.786  54.562  1.00  0.00     0.047 C 
BRANCH  11  16
ATOM     16  N   UNL     1     -21.338   4.976  54.718  1.00  0.00    -0.399 N 
ATOM     17  H   UNL     1     -21.802   5.731  55.259  1.00  0.00     0.156 HD
ATOM     18  H   UNL     1     -21.803   4.524  53.894  1.00  0.00     0.156 HD
ENDBRANCH  11  16
ENDBRANCH   8   9
ENDBRANCH   1   8
BRANCH   4  19
ATOM     19  O   UNL     1     -13.408   6.195  59.783  1.00  0.00    -0.493 OA
BRANCH  19  20
ATOM     20  C   UNL     1     -12.288   7.051  59.908  1.00  0.00     0.235 C 
BRANCH  20  21
ATOM     21  C   UNL     1     -12.740   8.475  60.151  1.00  0.00     0.088 C 
BRANCH  21  22
ATOM     22  C   UNL     1     -12.983   8.624  61.599  1.00  0.00     0.008 A 
ATOM     23  C   UNL     1     -12.065   8.690  62.648  1.00  0.00     0.015 A 
ATOM     24  S   UNL     1     -14.601   8.765  62.384  1.00  0.00    -0.149 S 
ATOM     25  C   UNL     1     -12.540   8.829  63.882  1.00  0.00     0.012 A 
ATOM     26  C   UNL     1     -13.883   8.901  64.078  1.00  0.00     0.065 A 
ENDBRANCH  21  22
ENDBRANCH  20  21
ENDBRANCH  19  20
ENDBRANCH   4  19
TORSDOF 7
ENDMDL
MODEL 6
REMARK VINA RESULT:    -7.776      3.279      7.857
REMARK INTER + INTRA:         -11.768
REMARK INTER:                 -11.443
REMARK INTRA:                  -0.325
REMARK UNBOUND:                -1.037
REMARK SMILES Cc1c(N)cccc1Cn1ccc(OCCc2cccs2)cc1=O
REMARK SMILES IDX 10 1 11 2 12 3 13 4 22 5 23 6 24 7 9 8 8 9 2 10 3 11 7 12
REMARK SMILES IDX 5 13 6 14 1 15 4 16 14 19 15 20 16 21 17 22 18 23 21 24
REMARK SMILES IDX 19 25 20 26
REMARK H PARENT 4 17 4 18
ROOT
ATOM      1  N   UNL     1     -15.544   6.055  56.453  1.00  0.00    -0.311 N 
ATOM      2  C   UNL     1     -15.583   6.012  55.104  1.00  0.00     0.093 A 
ATOM      3  C   UNL     1     -16.752   6.305  54.398  1.00  0.00     0.064 A 
ATOM      4  C   UNL     1     -17.886   6.643  55.100  1.00  0.00     0.126 A 
ATOM      5  C   UNL     1     -17.858   6.691  56.493  1.00  0.00     0.118 A 
ATOM      6  C   UNL     1     -16.672   6.390  57.144  1.00  0.00     0.254 A 
ATOM      7  O   UNL     1     -16.649   6.434  58.408  1.00  0.00    -0.269 OA
ENDROOT
BRANCH   1   8
ATOM      8  C   UNL     1     -14.371   5.765  57.228  1.00  0.00     0.161 C 
BRANCH   8   9
ATOM      9  C   UNL     1     -13.681   6.949  57.764  1.00  0.00    -0.023 A 
ATOM     10  C   UNL     1     -13.261   6.955  59.074  1.00  0.00    -0.023 A 
ATOM     11  C   UNL     1     -12.610   8.047  59.613  1.00  0.00     0.035 A 
ATOM     12  C   UNL     1     -13.432   8.082  56.988  1.00  0.00     0.006 A 
ATOM     13  C   UNL     1     -12.350   9.188  58.858  1.00  0.00     0.026 A 
ATOM     14  C   UNL     1     -12.776   9.185  57.526  1.00  0.00     0.002 A 
ATOM     15  C   UNL     1     -13.512   5.751  59.940  1.00  0.00     0.047 C 
BRANCH  11  16
ATOM     16  N   UNL     1     -12.199   7.982  60.991  1.00  0.00    -0.399 N 
ATOM     17  H   UNL     1     -12.408   7.163  61.595  1.00  0.00     0.156 HD
ATOM     18  H   UNL     1     -11.673   8.814  61.354  1.00  0.00     0.156 HD
ENDBRANCH  11  16
ENDBRANCH   8   9
ENDBRANCH   1   8
BRANCH   4  19
ATOM     19  O   UNL     1     -19.096   6.952  54.505  1.00  0.00    -0.493 OA
BRANCH  19  20
ATOM     20  C   UNL     1     -20.200   6.066  54.514  1.00  0.00     0.235 C 
BRANCH  20  21
ATOM     21  C   UNL     1     -20.903   6.115  55.853  1.00  0.00     0.088 C 
BRANCH  21  22
ATOM     22  C   UNL     1     -21.212   4.727  56.246  1.00  0.00     0.008 A 
ATOM     23  C   UNL     1     -22.091   4.258  57.223  1.00  0.00     0.015 A 
ATOM     24  S   UNL     1     -20.490   3.243  55.517  1.00  0.00    -0.149 S 
ATOM     25  C   UNL     1     -22.194   2.942  57.387  1.00  0.00     0.012 A 
ATOM     26  C   UNL     1     -21.451   2.110  56.610  1.00  0.00     0.065 A 
ENDBRANCH  21  22
ENDBRANCH  20  21
ENDBRANCH  19  20
ENDBRANCH   4  19
TORSDOF 7
ENDMDL
MODEL 7
REMARK VINA RESULT:    -7.545      3.558      5.618
REMARK INTER + INTRA:         -11.450
REMARK INTER:                 -10.688
REMARK INTRA:                  -0.762
REMARK UNBOUND:                -1.037
REMARK SMILES Cc1c(N)cccc1Cn1ccc(OCCc2cccs2)cc1=O
REMARK SMILES IDX 10 1 11 2 12 3 13 4 22 5 23 6 24 7 9 8 8 9 2 10 3 11 7 12
REMARK SMILES IDX 5 13 6 14 1 15 4 16 14 19 15 20 16 21 17 22 18 23 21 24
REMARK SMILES IDX 19 25 20 26
REMARK H PARENT 4 17 4 18
ROOT
ATOM      1  N   UNL     1     -20.311   3.698  55.381  1.00  0.00    -0.311 N 
ATOM      2  C   UNL     1     -18.990   3.464  55.540  1.00  0.00     0.093 A 
ATOM      3  C   UNL     1     -18.132   4.441  56.051  1.00  0.00     0.064 A 
ATOM      4  C   UNL     1     -18.652   5.667  56.397  1.00  0.00     0.126 A 
ATOM      5  C   UNL     1     -20.014   5.920  56.238  1.00  0.00     0.118 A 
ATOM      6  C   UNL     1     -20.820   4.916  55.726  1.00  0.00     0.254 A 
ATOM      7  O   UNL     1     -22.055   5.148  55.581  1.00  0.00    -0.269 OA
ENDROOT
BRANCH   1   8
ATOM      8  C   UNL     1     -21.236   2.732  54.861  1.00  0.00     0.161 C 
BRANCH   8   9
ATOM      9  C   UNL     1     -21.611   1.671  55.809  1.00  0.00    -0.023 A 
ATOM     10  C   UNL     1     -21.126   0.397  55.630  1.00  0.00    -0.023 A 
ATOM     11  C   UNL     1     -21.453  -0.626  56.497  1.00  0.00     0.035 A 
ATOM     12  C   UNL     1     -22.452   1.906  56.899  1.00  0.00     0.006 A 
ATOM     13  C   UNL     1     -22.290  -0.414  57.592  1.00  0.00     0.026 A 
ATOM     14  C   UNL     1     -22.786   0.880  57.777  1.00  0.00     0.002 A 
ATOM     15  C   UNL     1     -20.217   0.106  54.467  1.00  0.00     0.047 C 
BRANCH  11  16
ATOM     16  N   UNL     1     -20.907  -1.934  56.247  1.00  0.00    -0.399 N 
ATOM     17  H   UNL     1     -20.212  -2.375  56.881  1.00  0.00     0.156 HD
ATOM     18  H   UNL     1     -21.251  -2.419  55.384  1.00  0.00     0.156 HD
ENDBRANCH  11  16
ENDBRANCH   8   9
ENDBRANCH   1   8
BRANCH   4  19
ATOM     19  O   UNL     1     -17.897   6.706  56.912  1.00  0.00    -0.493 OA
BRANCH  19  20
ATOM     20  C   UNL     1     -16.482   6.673  56.959  1.00  0.00     0.235 C 
BRANCH  20  21
ATOM     21  C   UNL     1     -15.969   7.632  58.011  1.00  0.00     0.088 C 
BRANCH  21  22
ATOM     22  C   UNL     1     -14.559   7.929  57.694  1.00  0.00     0.008 A 
ATOM     23  C   UNL     1     -13.713   7.317  56.768  1.00  0.00     0.015 A 
ATOM     24  S   UNL     1     -13.555   9.213  58.467  1.00  0.00    -0.149 S 
ATOM     25  C   UNL     1     -12.468   7.773  56.668  1.00  0.00     0.012 A 
ATOM     26  C   UNL     1     -12.066   8.803  57.459  1.00  0.00     0.065 A 
ENDBRANCH  21  22
ENDBRANCH  20  21
ENDBRANCH  19  20
ENDBRANCH   4  19
TORSDOF 7
ENDMDL
MODEL 8
REMARK VINA RESULT:    -7.431      3.080      5.052
REMARK INTER + INTRA:         -11.292
REMARK INTER:                 -10.758
REMARK INTRA:                  -0.534
REMARK UNBOUND:                -1.037
REMARK SMILES Cc1c(N)cccc1Cn1ccc(OCCc2cccs2)cc1=O
REMARK SMILES IDX 10 1 11 2 12 3 13 4 22 5 23 6 24 7 9 8 8 9 2 10 3 11 7 12
REMARK SMILES IDX 5 13 6 14 1 15 4 16 14 19 15 20 16 21 17 22 18 23 21 24
REMARK SMILES IDX 19 25 20 26
REMARK H PARENT 4 17 4 18
ROOT
ATOM      1  N   UNL     1     -20.173   3.910  55.255  1.00  0.00    -0.311 N 
ATOM      2  C   UNL     1     -20.750   5.112  55.471  1.00  0.00     0.093 A 
ATOM      3  C   UNL     1     -20.017   6.196  55.958  1.00  0.00     0.064 A 
ATOM      4  C   UNL     1     -18.677   6.029  56.223  1.00  0.00     0.126 A 
ATOM      5  C   UNL     1     -18.070   4.792  56.004  1.00  0.00     0.118 A 
ATOM      6  C   UNL     1     -18.844   3.750  55.520  1.00  0.00     0.254 A 
ATOM      7  O   UNL     1     -18.291   2.629  55.323  1.00  0.00    -0.269 OA
ENDROOT
BRANCH   1   8
ATOM      8  C   UNL     1     -20.878   2.763  54.755  1.00  0.00     0.161 C 
BRANCH   8   9
ATOM      9  C   UNL     1     -21.435   1.885  55.796  1.00  0.00    -0.023 A 
ATOM     10  C   UNL     1     -21.195   0.532  55.743  1.00  0.00    -0.023 A 
ATOM     11  C   UNL     1     -21.699  -0.325  56.700  1.00  0.00     0.035 A 
ATOM     12  C   UNL     1     -22.209   2.374  56.850  1.00  0.00     0.006 A 
ATOM     13  C   UNL     1     -22.474   0.141  57.761  1.00  0.00     0.026 A 
ATOM     14  C   UNL     1     -22.721   1.516  57.818  1.00  0.00     0.002 A 
ATOM     15  C   UNL     1     -20.365  -0.031  54.622  1.00  0.00     0.047 C 
BRANCH  11  16
ATOM     16  N   UNL     1     -21.407  -1.729  56.581  1.00  0.00    -0.399 N 
ATOM     17  H   UNL     1     -21.900  -2.449  57.144  1.00  0.00     0.156 HD
ATOM     18  H   UNL     1     -20.663  -1.987  55.888  1.00  0.00     0.156 HD
ENDBRANCH  11  16
ENDBRANCH   8   9
ENDBRANCH   1   8
BRANCH   4  19
ATOM     19  O   UNL     1     -17.856   7.031  56.707  1.00  0.00    -0.493 OA
BRANCH  19  20
ATOM     20  C   UNL     1     -16.564   6.778  57.226  1.00  0.00     0.235 C 
BRANCH  20  21
ATOM     21  C   UNL     1     -16.117   7.925  58.107  1.00  0.00     0.088 C 
BRANCH  21  22
ATOM     22  C   UNL     1     -14.731   7.648  58.530  1.00  0.00     0.008 A 
ATOM     23  C   UNL     1     -13.532   7.955  57.886  1.00  0.00     0.015 A 
ATOM     24  S   UNL     1     -14.244   6.812  60.052  1.00  0.00    -0.149 S 
ATOM     25  C   UNL     1     -12.398   7.595  58.480  1.00  0.00     0.012 A 
ATOM     26  C   UNL     1     -12.443   6.952  59.676  1.00  0.00     0.065 A 
ENDBRANCH  21  22
ENDBRANCH  20  21
ENDBRANCH  19  20
ENDBRANCH   4  19
TORSDOF 7
ENDMDL
MODEL 9
REMARK VINA RESULT:    -7.273      3.828      8.499
REMARK INTER + INTRA:         -11.073
REMARK INTER:                 -10.104
REMARK INTRA:                  -0.969
REMARK UNBOUND:                -1.037
REMARK SMILES Cc1c(N)cccc1Cn1ccc(OCCc2cccs2)cc1=O
REMARK SMILES IDX 10 1 11 2 12 3 13 4 22 5 23 6 24 7 9 8 8 9 2 10 3 11 7 12
REMARK SMILES IDX 5 13 6 14 1 15 4 16 14 19 15 20 16 21 17 22 18 23 21 24
REMARK SMILES IDX 19 25 20 26
REMARK H PARENT 4 17 4 18
ROOT
ATOM      1  N   UNL     1     -16.655   5.106  57.020  1.00  0.00    -0.311 N 
ATOM      2  C   UNL     1     -17.604   6.037  56.781  1.00  0.00     0.093 A 
ATOM      3  C   UNL     1     -18.742   5.741  56.027  1.00  0.00     0.064 A 
ATOM      4  C   UNL     1     -18.893   4.470  55.521  1.00  0.00     0.126 A 
ATOM      5  C   UNL     1     -17.919   3.501  55.761  1.00  0.00     0.118 A 
ATOM      6  C   UNL     1     -16.809   3.849  56.514  1.00  0.00     0.254 A 
ATOM      7  O   UNL     1     -15.927   2.967  56.731  1.00  0.00    -0.269 OA
ENDROOT
BRANCH   1   8
ATOM      8  C   UNL     1     -15.467   5.355  57.787  1.00  0.00     0.161 C 
BRANCH   8   9
ATOM      9  C   UNL     1     -14.559   6.356  57.203  1.00  0.00    -0.023 A 
ATOM     10  C   UNL     1     -14.342   7.542  57.863  1.00  0.00    -0.023 A 
ATOM     11  C   UNL     1     -13.497   8.506  57.349  1.00  0.00     0.035 A 
ATOM     12  C   UNL     1     -13.899   6.148  55.990  1.00  0.00     0.006 A 
ATOM     13  C   UNL     1     -12.828   8.320  56.140  1.00  0.00     0.026 A 
ATOM     14  C   UNL     1     -13.046   7.114  55.466  1.00  0.00     0.002 A 
ATOM     15  C   UNL     1     -15.035   7.801  59.173  1.00  0.00     0.047 C 
BRANCH  11  16
ATOM     16  N   UNL     1     -13.317   9.724  58.095  1.00  0.00    -0.399 N 
ATOM     17  H   UNL     1     -14.113  10.233  58.524  1.00  0.00     0.156 HD
ATOM     18  H   UNL     1     -12.331  10.069  58.181  1.00  0.00     0.156 HD
ENDBRANCH  11  16
ENDBRANCH   8   9
ENDBRANCH   1   8
BRANCH   4  19
ATOM     19  O   UNL     1     -19.978   4.067  54.763  1.00  0.00    -0.493 OA
BRANCH  19  20
ATOM     20  C   UNL     1     -21.278   3.922  55.305  1.00  0.00     0.235 C 
BRANCH  20  21
ATOM     21  C   UNL     1     -21.434   2.555  55.935  1.00  0.00     0.088 C 
BRANCH  21  22
ATOM     22  C   UNL     1     -21.576   1.573  54.843  1.00  0.00     0.008 A 
ATOM     23  C   UNL     1     -22.679   1.308  54.030  1.00  0.00     0.015 A 
ATOM     24  S   UNL     1     -20.295   0.436  54.278  1.00  0.00    -0.149 S 
ATOM     25  C   UNL     1     -22.554   0.362  53.103  1.00  0.00     0.012 A 
ATOM     26  C   UNL     1     -21.377  -0.304  52.981  1.00  0.00     0.065 A 
ENDBRANCH  21  22
ENDBRANCH  20  21
ENDBRANCH  19  20
ENDBRANCH   4  19
TORSDOF 7
ENDMDL
