
     RDKit          3D

 24 25  0  0  0  0  0  0  0  0999 V2000
   -3.6724   -0.7433   -0.3681 C   0  0  0  0  0  0  0  0  0  0  0  0
   -3.1613    0.2411   -1.2027 C   0  0  0  0  0  0  0  0  0  0  0  0
   -1.9692    0.8573   -0.9224 C   0  0  0  0  0  0  0  0  0  0  0  0
   -1.2849    0.4761    0.2128 C   0  0  0  0  0  0  0  0  0  0  0  0
   -1.7830   -0.5144    1.0675 C   0  0  0  0  0  0  0  0  0  0  0  0
   -2.9919   -1.1231    0.7617 C   0  0  0  0  0  0  0  0  0  0  0  0
   -0.0722    1.0351    0.5880 O   0  0  0  0  0  0  0  0  0  0  0  0
    1.1510    0.5058    0.1640 C   0  0  0  0  0  0  0  0  0  0  0  0
    1.1638   -0.6075   -0.6537 C   0  0  0  0  0  0  0  0  0  0  0  0
    2.3821   -1.1119   -1.0594 C   0  0  0  0  0  0  0  0  0  0  0  0
    3.5655   -0.5099   -0.6517 C   0  0  0  0  0  0  0  0  0  0  0  0
    3.5093    0.6007    0.1652 C   0  0  0  0  0  0  0  0  0  0  0  0
    2.2986    1.1382    0.5949 C   0  0  0  0  0  0  0  0  0  0  0  0
    2.2891    2.2580    1.4173 O   0  0  0  0  0  0  0  0  0  0  0  0
   -4.6147   -1.2478   -0.5667 H   0  0  0  0  0  0  0  0  0  0  0  0
   -3.7289    0.5236   -2.0997 H   0  0  0  0  0  0  0  0  0  0  0  0
   -1.5405    1.6251   -1.5457 H   0  0  0  0  0  0  0  0  0  0  0  0
   -1.2406   -0.8095    1.9579 H   0  0  0  0  0  0  0  0  0  0  0  0
   -3.4172   -1.9053    1.4073 H   0  0  0  0  0  0  0  0  0  0  0  0
    0.2729   -1.1027   -0.9914 H   0  0  0  0  0  0  0  0  0  0  0  0
    2.3868   -1.9967   -1.7090 H   0  0  0  0  0  0  0  0  0  0  0  0
    4.4865   -0.9531   -1.0038 H   0  0  0  0  0  0  0  0  0  0  0  0
    4.4559    1.0616    0.4761 H   0  0  0  0  0  0  0  0  0  0  0  0
    1.5154    2.3027    2.0872 H   0  0  0  0  0  0  0  0  0  0  0  0
  1  2  2  0
  2  3  1  0
  3  4  2  0
  4  5  1  0
  5  6  2  0
  4  7  1  0
  7  8  1  0
  8  9  2  0
  9 10  1  0
 10 11  2  0
 11 12  1  0
 12 13  2  0
 13 14  1  0
  6  1  1  0
 13  8  1  0
  1 15  1  0
  2 16  1  0
  3 17  1  0
  5 18  1  0
  6 19  1  0
  9 20  1  0
 10 21  1  0
 11 22  1  0
 12 23  1  0
 14 24  1  0
M  END
$$$$
