REMARK SMILES Oc1ccccc1Oc1ccccc1
REMARK SMILES IDX 7 1 6 2 5 3 4 4 3 5 2 6 8 7 9 8 12 9 11 10 13 11 10 12 14 13
REMARK SMILES IDX 1 14
REMARK H PARENT 1 15
ROOT
ATOM      1  C   UNL     1       1.151   0.506   0.164  1.00  0.00     0.169 A 
ATOM      2  C   UNL     1       1.164  -0.608  -0.654  1.00  0.00     0.051 A 
ATOM      3  C   UNL     1       2.382  -1.112  -1.059  1.00  0.00     0.004 A 
ATOM      4  C   UNL     1       3.566  -0.510  -0.652  1.00  0.00     0.004 A 
ATOM      5  C   UNL     1       3.509   0.601   0.165  1.00  0.00     0.050 A 
ATOM      6  C   UNL     1       2.299   1.138   0.595  1.00  0.00     0.158 A 
ENDROOT
BRANCH   1   7
ATOM      7  O   UNL     1      -0.072   1.035   0.588  1.00  0.00    -0.453 OA
BRANCH   7   8
ATOM      8  C   UNL     1      -1.285   0.476   0.213  1.00  0.00     0.127 A 
ATOM      9  C   UNL     1      -3.672  -0.743  -0.368  1.00  0.00     0.000 A 
ATOM     10  C   UNL     1      -3.161   0.241  -1.203  1.00  0.00     0.004 A 
ATOM     11  C   UNL     1      -2.992  -1.123   0.762  1.00  0.00     0.004 A 
ATOM     12  C   UNL     1      -1.969   0.857  -0.922  1.00  0.00     0.047 A 
ATOM     13  C   UNL     1      -1.783  -0.514   1.067  1.00  0.00     0.047 A 
ENDBRANCH   7   8
ENDBRANCH   1   7
BRANCH   6  14
ATOM     14  O   UNL     1       2.289   2.258   1.417  1.00  0.00    -0.504 OA
ATOM     15  H   UNL     1       1.515   2.303   2.087  1.00  0.00     0.293 HD
ENDBRANCH   6  14
TORSDOF 3
