
     RDKit          3D

 44 46  0  0  0  0  0  0  0  0999 V2000
   -5.3246    0.7212   -1.8067 C   0  0  0  0  0  0  0  0  0  0  0  0
   -4.7483    0.4565   -0.4427 C   0  0  0  0  0  0  0  0  0  0  0  0
   -3.4118    0.1558   -0.3179 C   0  0  0  0  0  0  0  0  0  0  0  0
   -2.9095   -0.0844    0.9624 C   0  0  0  0  0  0  0  0  0  0  0  0
   -3.7378   -0.0210    2.0781 C   0  0  0  0  0  0  0  0  0  0  0  0
   -5.0956    0.2850    1.9472 C   0  0  0  0  0  0  0  0  0  0  0  0
   -5.5760    0.5210    0.6604 C   0  0  0  0  0  0  0  0  0  0  0  0
   -6.9636    0.8412    0.4533 N   0  0  0  0  0  0  0  0  0  0  0  0
   -2.5649    0.0972   -1.5195 C   0  0  0  0  0  0  0  0  0  0  0  0
   -1.1894   -0.2254   -1.2670 N   0  0  0  0  0  0  0  0  0  0  0  0
   -0.2338    0.6980   -1.0221 C   0  0  0  0  0  0  0  0  0  0  0  0
    1.0916    0.3302   -0.7822 C   0  0  0  0  0  0  0  0  0  0  0  0
    1.4252   -1.0048   -0.7970 C   0  0  0  0  0  0  0  0  0  0  0  0
    0.4468   -1.9668   -1.0487 C   0  0  0  0  0  0  0  0  0  0  0  0
   -0.8528   -1.5468   -1.2803 C   0  0  0  0  0  0  0  0  0  0  0  0
   -1.7385   -2.4222   -1.5085 O   0  0  0  0  0  0  0  0  0  0  0  0
    2.7040   -1.4823   -0.5729 O   0  0  0  0  0  0  0  0  0  0  0  0
    3.8022   -0.6301   -0.3042 C   0  0  0  0  0  0  0  0  0  0  0  0
    5.0618   -1.4444   -0.1044 C   0  0  0  0  0  0  0  0  0  0  0  0
    6.1626   -0.5006    0.1704 C   0  0  0  0  0  0  0  0  0  0  0  0
    6.1357    0.8924    0.2494 C   0  0  0  0  0  0  0  0  0  0  0  0
    7.2767    1.5223    0.5131 C   0  0  0  0  0  0  0  0  0  0  0  0
    8.4144    0.8004    0.6944 C   0  0  0  0  0  0  0  0  0  0  0  0
    7.8815   -0.9532    0.4829 S   0  0  0  0  0  0  0  0  0  0  0  0
   -6.3825    0.9855   -1.7255 H   0  0  0  0  0  0  0  0  0  0  0  0
   -5.3114   -0.2843   -2.3168 H   0  0  0  0  0  0  0  0  0  0  0  0
   -4.6971    1.4212   -2.3798 H   0  0  0  0  0  0  0  0  0  0  0  0
   -1.8512   -0.3243    1.0789 H   0  0  0  0  0  0  0  0  0  0  0  0
   -3.3126   -0.2146    3.0679 H   0  0  0  0  0  0  0  0  0  0  0  0
   -5.7477    0.3366    2.8085 H   0  0  0  0  0  0  0  0  0  0  0  0
   -7.3452    1.7922    0.6218 H   0  0  0  0  0  0  0  0  0  0  0  0
   -7.5730    0.0549    0.1203 H   0  0  0  0  0  0  0  0  0  0  0  0
   -2.5981    1.0776   -2.0361 H   0  0  0  0  0  0  0  0  0  0  0  0
   -3.0281   -0.6306   -2.2164 H   0  0  0  0  0  0  0  0  0  0  0  0
   -0.5326    1.7454   -1.0178 H   0  0  0  0  0  0  0  0  0  0  0  0
    1.8562    1.0660   -0.5864 H   0  0  0  0  0  0  0  0  0  0  0  0
    0.6995   -3.0212   -1.0625 H   0  0  0  0  0  0  0  0  0  0  0  0
    3.9342    0.0460   -1.1729 H   0  0  0  0  0  0  0  0  0  0  0  0
    3.6320   -0.0560    0.6134 H   0  0  0  0  0  0  0  0  0  0  0  0
    5.3010   -2.0563   -1.0068 H   0  0  0  0  0  0  0  0  0  0  0  0
    4.9629   -2.0874    0.7873 H   0  0  0  0  0  0  0  0  0  0  0  0
    5.1668    1.4043    0.0888 H   0  0  0  0  0  0  0  0  0  0  0  0
    7.3292    2.6415    0.5913 H   0  0  0  0  0  0  0  0  0  0  0  0
    9.4419    1.0641    0.9135 H   0  0  0  0  0  0  0  0  0  0  0  0
  1  2  1  0
  2  3  2  0
  3  4  1  0
  4  5  2  0
  5  6  1  0
  6  7  2  0
  7  8  1  0
  3  9  1  0
  9 10  1  0
 10 11  1  0
 11 12  2  0
 12 13  1  0
 13 14  2  0
 14 15  1  0
 15 16  2  0
 13 17  1  0
 17 18  1  0
 18 19  1  0
 19 20  1  0
 20 21  2  0
 21 22  1  0
 22 23  2  0
 23 24  1  0
  7  2  1  0
 15 10  1  0
 24 20  1  0
  1 25  1  0
  1 26  1  0
  1 27  1  0
  4 28  1  0
  5 29  1  0
  6 30  1  0
  8 31  1  0
  8 32  1  0
  9 33  1  0
  9 34  1  0
 11 35  1  0
 12 36  1  0
 14 37  1  0
 18 38  1  0
 18 39  1  0
 19 40  1  0
 19 41  1  0
 21 42  1  0
 22 43  1  0
 23 44  1  0
M  END
$$$$
