REMARK SMILES Cc1c(N)cccc1Cn1ccc(OCCc2cccs2)cc1=O
REMARK SMILES IDX 10 1 11 2 12 3 13 4 22 5 23 6 24 7 9 8 8 9 2 10 3 11 7 12
REMARK SMILES IDX 5 13 6 14 1 15 4 16 14 19 15 20 16 21 17 22 18 23 21 24
REMARK SMILES IDX 19 25 20 26
REMARK H PARENT 4 17 4 18
ROOT
ATOM      1  N   UNL     1      -1.189  -0.225  -1.267  1.00  0.00    -0.311 N 
ATOM      2  C   UNL     1      -0.234   0.698  -1.022  1.00  0.00     0.093 A 
ATOM      3  C   UNL     1       1.092   0.330  -0.782  1.00  0.00     0.064 A 
ATOM      4  C   UNL     1       1.425  -1.005  -0.797  1.00  0.00     0.126 A 
ATOM      5  C   UNL     1       0.447  -1.967  -1.049  1.00  0.00     0.118 A 
ATOM      6  C   UNL     1      -0.853  -1.547  -1.280  1.00  0.00     0.254 A 
ATOM      7  O   UNL     1      -1.738  -2.422  -1.508  1.00  0.00    -0.269 OA
ENDROOT
BRANCH   1   8
ATOM      8  C   UNL     1      -2.565   0.097  -1.520  1.00  0.00     0.161 C 
BRANCH   8   9
ATOM      9  C   UNL     1      -3.412   0.156  -0.318  1.00  0.00    -0.023 A 
ATOM     10  C   UNL     1      -4.748   0.457  -0.443  1.00  0.00    -0.023 A 
ATOM     11  C   UNL     1      -5.576   0.521   0.660  1.00  0.00     0.035 A 
ATOM     12  C   UNL     1      -2.909  -0.084   0.962  1.00  0.00     0.006 A 
ATOM     13  C   UNL     1      -5.096   0.285   1.947  1.00  0.00     0.026 A 
ATOM     14  C   UNL     1      -3.738  -0.021   2.078  1.00  0.00     0.002 A 
ATOM     15  C   UNL     1      -5.325   0.721  -1.807  1.00  0.00     0.047 C 
BRANCH  11  16
ATOM     16  N   UNL     1      -6.964   0.841   0.453  1.00  0.00    -0.399 N 
ATOM     17  H   UNL     1      -7.345   1.792   0.622  1.00  0.00     0.156 HD
ATOM     18  H   UNL     1      -7.573   0.055   0.120  1.00  0.00     0.156 HD
ENDBRANCH  11  16
ENDBRANCH   8   9
ENDBRANCH   1   8
BRANCH   4  19
ATOM     19  O   UNL     1       2.704  -1.482  -0.573  1.00  0.00    -0.493 OA
BRANCH  19  20
ATOM     20  C   UNL     1       3.802  -0.630  -0.304  1.00  0.00     0.235 C 
BRANCH  20  21
ATOM     21  C   UNL     1       5.062  -1.444  -0.104  1.00  0.00     0.088 C 
BRANCH  21  22
ATOM     22  C   UNL     1       6.163  -0.501   0.170  1.00  0.00     0.008 A 
ATOM     23  C   UNL     1       6.136   0.892   0.249  1.00  0.00     0.015 A 
ATOM     24  S   UNL     1       7.881  -0.953   0.483  1.00  0.00    -0.149 S 
ATOM     25  C   UNL     1       7.277   1.522   0.513  1.00  0.00     0.012 A 
ATOM     26  C   UNL     1       8.414   0.800   0.694  1.00  0.00     0.065 A 
ENDBRANCH  21  22
ENDBRANCH  20  21
ENDBRANCH  19  20
ENDBRANCH   4  19
TORSDOF 7
